# WEL package for MODFLOW-NWT generated by Flopy 3.3.5
        22         1 
        22         0 # stress period 1
         2       134        70   -2.1482
         2       136        70   -2.1482
         2       175        49-0.0462261
         2       137        70   -2.1482
         2       138        69   -2.1482
         2       138        70   -2.1482
         2       174        50-0.0462261
         2       138        71   -2.1482
         2       138        72   -2.1482
         2       172        45  -2.81137
         2       174        49-0.0462261
         2       171        44  -2.81137
         2       171        46  -2.81137
         2       174        48-0.0462261
         2       149        64 -0.339656
         2       173        49-0.0462261
         2       149        65 -0.339656
         2       171        45  -2.81137
         2       150        65 -0.339656
         2       170        45  -2.81137
         2       135        70   -2.1482
         2       139        70   -2.1482
        22         0 # stress period 2
         2       171        44  -4.35318
         2       138        69  -2.28929
         2       138        72  -2.28929
         2       174        49 -0.105948
         2       174        50 -0.105948
         2       138        70  -2.28929
         2       139        70  -2.28929
         2       171        45  -4.35318
         2       136        70  -2.28929
         2       172        45  -4.35318
         2       170        45  -4.35318
         2       138        71  -2.28929
         2       149        64 -0.776947
         2       171        46  -4.35318
         2       150        65 -0.776947
         2       135        70  -2.28929
         2       137        70  -2.28929
         2       175        49 -0.105948
         2       149        65 -0.776947
         2       174        48 -0.105948
         2       173        49 -0.105948
         2       134        70  -2.28929
        22         0 # stress period 3
         2       138        72  -2.21056
         2       139        70  -2.21056
         2       149        65  -1.21424
         2       135        70  -2.21056
         2       171        46  -4.26285
         2       172        45  -4.26285
         2       173        49 -0.165671
         2       150        65  -1.21424
         2       175        49 -0.165671
         2       174        49 -0.165671
         2       171        45  -4.26285
         2       137        70  -2.21056
         2       149        64  -1.21424
         2       174        50 -0.165671
         2       138        70  -2.21056
         2       138        69  -2.21056
         2       136        70  -2.21056
         2       174        48 -0.165671
         2       170        45  -4.26285
         2       171        44  -4.26285
         2       138        71  -2.21056
         2       134        70  -2.21056
        22         0 # stress period 4
         2       139        70  -1.87327
         2       171        44  -4.07111
         2       135        70  -1.87327
         2       138        69  -1.87327
         2       174        48 -0.225393
         2       137        70  -1.87327
         2       149        65  -1.65153
         2       173        49 -0.225393
         2       175        49 -0.225393
         2       138        71  -1.87327
         2       171        46  -4.07111
         2       172        45  -4.07111
         2       150        65  -1.65153
         2       174        50 -0.225393
         2       134        70  -1.87327
         2       149        64  -1.65153
         2       136        70  -1.87327
         2       170        45  -4.07111
         2       138        70  -1.87327
         2       171        45  -4.07111
         2       138        72  -1.87327
         2       174        49 -0.225393
        22         0 # stress period 5
         2       149        64   -4.0734
         2       175        49 -0.285115
         2       173        49 -0.285115
         2       174        48 -0.285115
         2       171        46  -3.51143
         2       136        70  -1.23538
         2       135        70  -1.23538
         2       172        45  -3.51143
         2       138        72  -1.23538
         2       134        70  -1.23538
         2       171        45  -3.51143
         2       138        71  -1.23538
         2       174        49 -0.285115
         2       170        45  -3.51143
         2       139        70  -1.23538
         2       150        65   -4.0734
         2       138        70  -1.23538
         2       174        50 -0.285115
         2       149        65   -4.0734
         2       171        44  -3.51143
         2       138        69  -1.23538
         2       137        70  -1.23538
        22         0 # stress period 6
         2       170        45  -1.70567
         2       138        69  -1.74741
         2       174        50  -3.81883
         2       136        70  -1.74741
         2       138        70  -1.74741
         2       171        44  -1.70567
         2       138        71  -1.74741
         2       138        72  -1.74741
         2       172        45  -1.70567
         2       149        64 -0.195147
         2       171        45  -1.70567
         2       171        46  -1.70567
         2       134        70  -1.74741
         2       137        70  -1.74741
         2       175        49  -3.81883
         2       139        70  -1.74741
         2       135        70  -1.74741
         2       173        49  -3.81883
         2       150        65 -0.195147
         2       149        65 -0.195147
         2       174        48  -3.81883
         2       174        49  -3.81883
        22         0 # stress period 7
         2       171        46  -4.32291
         2       139        70 -0.482917
         2       174        50  -4.13862
         2       138        69 -0.482917
         2       172        45  -4.32291
         2       174        49  -4.13862
         2       138        71 -0.482917
         2       175        49  -4.13862
         2       136        70 -0.482917
         2       138        70 -0.482917
         2       174        48  -4.13862
         2       138        72 -0.482917
         2       137        70 -0.482917
         2       149        65  -1.01284
         2       173        49  -4.13862
         2       134        70 -0.482917
         2       171        45  -4.32291
         2       135        70 -0.482917
         2       150        65  -1.01284
         2       149        64  -1.01284
         2       171        44  -4.32291
         2       170        45  -4.32291
        19         0 # stress period 8
         2       138        70 -0.193222
         2       171        46 -0.747375
         2       174        48  -4.27128
         2       173        49  -4.27128
         2       175        49  -4.27128
         2       171        44 -0.747375
         2       171        45 -0.747375
         2       174        50  -4.27128
         2       135        70 -0.193222
         2       138        69 -0.193222
         2       174        49  -4.27128
         2       170        45 -0.747375
         2       172        45 -0.747375
         2       138        72 -0.193222
         2       138        71 -0.193222
         2       139        70 -0.193222
         2       137        70 -0.193222
         2       136        70 -0.193222
         2       134        70 -0.193222
        19         0 # stress period 9
         2       173        49  -4.29644
         2       174        50  -4.29644
         2       134        70 -0.476786
         2       135        70 -0.476786
         2       170        45 -0.257925
         2       139        70 -0.476786
         2       175        49  -4.29644
         2       138        69 -0.476786
         2       171        45 -0.257925
         2       172        45 -0.257925
         2       174        48  -4.29644
         2       136        70 -0.476786
         2       138        70 -0.476786
         2       171        44 -0.257925
         2       137        70 -0.476786
         2       174        49  -4.29644
         2       171        46 -0.257925
         2       138        72 -0.476786
         2       138        71 -0.476786
        19         0 # stress period 10
         2       138        70  -0.76035
         2       137        70  -0.76035
         2       175        49   -4.3006
         2       138        71  -0.76035
         2       136        70  -0.76035
         2       138        72  -0.76035
         2       174        49   -4.3006
         2       171        45  -1.81687
         2       139        70  -0.76035
         2       134        70  -0.76035
         2       135        70  -0.76035
         2       172        45  -1.81687
         2       173        49   -4.3006
         2       174        48   -4.3006
         2       174        50   -4.3006
         2       171        46  -1.81687
         2       171        44  -1.81687
         2       138        69  -0.76035
         2       170        45  -1.81687
        19         0 # stress period 11
         2       137        70  -1.27252
         2       171        44  -4.25031
         2       174        50  -4.13774
         2       139        70  -1.27252
         2       138        69  -1.27252
         2       134        70  -1.27252
         2       138        72  -1.27252
         2       171        46  -4.25031
         2       174        49  -4.13774
         2       172        45  -4.25031
         2       138        71  -1.27252
         2       174        48  -4.13774
         2       135        70  -1.27252
         2       138        70  -1.27252
         2       170        45  -4.25031
         2       173        49  -4.13774
         2       171        45  -4.25031
         2       136        70  -1.27252
         2       175        49  -4.13774
        19         0 # stress period 12
         2       136        70  -2.36831
         2       175        49  -1.68242
         2       172        45  -1.57469
         2       173        49  -1.68242
         2       138        70  -2.36831
         2       174        48  -1.68242
         2       174        49  -1.68242
         2       138        71  -2.36831
         2       134        70  -2.36831
         2       171        44  -1.57469
         2       139        70  -2.36831
         2       138        69  -2.36831
         2       170        45  -1.57469
         2       171        46  -1.57469
         2       135        70  -2.36831
         2       174        50  -1.68242
         2       171        45  -1.57469
         2       137        70  -2.36831
         2       138        72  -2.36831
        19         0 # stress period 13
         2       172        45 -0.494497
         2       138        70  -2.19386
         2       138        71  -2.19386
         2       138        69  -2.19386
         2       170        45 -0.494497
         2       171        44 -0.494497
         2       138        72  -2.19386
         2       174        50 -0.840642
         2       134        70  -2.19386
         2       135        70  -2.19386
         2       139        70  -2.19386
         2       173        49 -0.840642
         2       171        45 -0.494497
         2       137        70  -2.19386
         2       175        49 -0.840642
         2       174        48 -0.840642
         2       136        70  -2.19386
         2       174        49 -0.840642
         2       171        46 -0.494497
        19         0 # stress period 14
         2       175        49  -2.06028
         2       138        70  -1.27706
         2       171        44 -0.888446
         2       173        49  -2.06028
         2       139        70  -1.27706
         2       135        70  -1.27706
         2       170        45 -0.888446
         2       171        46 -0.888446
         2       171        45 -0.888446
         2       134        70  -1.27706
         2       174        48  -2.06028
         2       137        70  -1.27706
         2       172        45 -0.888446
         2       138        72  -1.27706
         2       174        49  -2.06028
         2       174        50  -2.06028
         2       136        70  -1.27706
         2       138        69  -1.27706
         2       138        71  -1.27706
        14         0 # stress period 15
         2       138        69 -0.260342
         2       174        50   -4.1039
         2       136        70 -0.260342
         2       173        49   -4.1039
         2       135        70 -0.260342
         2       138        71 -0.260342
         2       174        48   -4.1039
         2       137        70 -0.260342
         2       139        70 -0.260342
         2       134        70 -0.260342
         2       138        72 -0.260342
         2       138        70 -0.260342
         2       175        49   -4.1039
         2       174        49   -4.1039
        14         0 # stress period 16
         2       138        72 -0.748864
         2       134        70 -0.748864
         2       174        50   -1.0041
         2       174        48   -1.0041
         2       138        71 -0.748864
         2       173        49   -1.0041
         2       138        70 -0.748864
         2       174        49   -1.0041
         2       139        70 -0.748864
         2       175        49   -1.0041
         2       137        70 -0.748864
         2       135        70 -0.748864
         2       136        70 -0.748864
         2       138        69 -0.748864
        14         0 # stress period 17
         2       139        70  -1.23739
         2       138        69  -1.23739
         2       173        49  -2.02793
         2       137        70  -1.23739
         2       135        70  -1.23739
         2       174        50  -2.02793
         2       138        71  -1.23739
         2       175        49  -2.02793
         2       174        49  -2.02793
         2       174        48  -2.02793
         2       134        70  -1.23739
         2       136        70  -1.23739
         2       138        70  -1.23739
         2       138        72  -1.23739
        14         0 # stress period 18
         2       135        70  -1.94122
         2       174        48  -4.17733
         2       174        49  -4.17733
         2       138        70  -1.94122
         2       138        69  -1.94122
         2       136        70  -1.94122
         2       175        49  -4.17733
         2       174        50  -4.17733
         2       139        70  -1.94122
         2       173        49  -4.17733
         2       137        70  -1.94122
         2       134        70  -1.94122
         2       138        71  -1.94122
         2       138        72  -1.94122
        19         0 # stress period 19
         2       138        70  -2.40161
         2       138        71  -2.40161
         2       171        46-0.00354581
         2       138        72  -2.40161
         2       172        45-0.00354581
         2       174        48  -4.03035
         2       174        49  -4.03035
         2       171        44-0.00354581
         2       136        70  -2.40161
         2       171        45-0.00354581
         2       139        70  -2.40161
         2       170        45-0.00354581
         2       134        70  -2.40161
         2       137        70  -2.40161
         2       173        49  -4.03035
         2       135        70  -2.40161
         2       174        50  -4.03035
         2       175        49  -4.03035
         2       138        69  -2.40161
        19         0 # stress period 20
         2       174        49 -0.446266
         2       136        70  -2.33864
         2       171        45 -0.227271
         2       138        72  -2.33864
         2       134        70  -2.33864
         2       138        71  -2.33864
         2       175        49 -0.446266
         2       173        49 -0.446266
         2       135        70  -2.33864
         2       138        69  -2.33864
         2       171        46 -0.227271
         2       174        50 -0.446266
         2       138        70  -2.33864
         2       137        70  -2.33864
         2       170        45 -0.227271
         2       139        70  -2.33864
         2       172        45 -0.227271
         2       171        44 -0.227271
         2       174        48 -0.446266
        19         0 # stress period 21
         2       134        70  -2.31571
         2       174        49  -4.09116
         2       138        69  -2.31571
         2       175        49  -4.09116
         2       171        44  -1.22898
         2       137        70  -2.31571
         2       135        70  -2.31571
         2       174        50  -4.09116
         2       138        71  -2.31571
         2       173        49  -4.09116
         2       171        45  -1.22898
         2       138        72  -2.31571
         2       170        45  -1.22898
         2       139        70  -2.31571
         2       172        45  -1.22898
         2       136        70  -2.31571
         2       174        48  -4.09116
         2       171        46  -1.22898
         2       138        70  -2.31571
        19         0 # stress period 22
         2       136        70  -2.34218
         2       172        45  -1.90405
         2       171        45  -1.90405
         2       138        71  -2.34218
         2       138        72  -2.34218
         2       134        70  -2.34218
         2       173        49  -4.07235
         2       170        45  -1.90405
         2       139        70  -2.34218
         2       138        70  -2.34218
         2       171        44  -1.90405
         2       171        46  -1.90405
         2       138        69  -2.34218
         2       174        48  -4.07235
         2       137        70  -2.34218
         2       175        49  -4.07235
         2       174        49  -4.07235
         2       174        50  -4.07235
         2       135        70  -2.34218
        19         0 # stress period 23
         2       138        71 -0.678178
         2       173        49  -4.28052
         2       171        44 -0.425285
         2       139        70 -0.678178
         2       174        48  -4.28052
         2       134        70 -0.678178
         2       171        46 -0.425285
         2       138        69 -0.678178
         2       137        70 -0.678178
         2       135        70 -0.678178
         2       174        50  -4.28052
         2       138        72 -0.678178
         2       138        70 -0.678178
         2       136        70 -0.678178
         2       171        45 -0.425285
         2       174        49  -4.28052
         2       170        45 -0.425285
         2       172        45 -0.425285
         2       175        49  -4.28052
        10         0 # stress period 24
         2       174        49  -4.15873
         2       172        45  -1.81544
         2       173        49  -4.15873
         2       174        50  -4.15873
         2       170        45  -1.81544
         2       174        48  -4.15873
         2       171        46  -1.81544
         2       175        49  -4.15873
         2       171        44  -1.81544
         2       171        45  -1.81544
        10         0 # stress period 25
         2       171        46-0.0831085
         2       174        48  -4.11076
         2       174        49  -4.11076
         2       175        49  -4.11076
         2       171        45-0.0831085
         2       174        50  -4.11076
         2       173        49  -4.11076
         2       170        45-0.0831085
         2       171        44-0.0831085
         2       172        45-0.0831085
         5         0 # stress period 26
         2       174        50  -4.22597
         2       175        49  -4.22597
         2       174        48  -4.22597
         2       174        49  -4.22597
         2       173        49  -4.22597
        14         0 # stress period 27
         2       138        70  -1.48228
         2       175        49   -4.1875
         2       137        70  -1.48228
         2       135        70  -1.48228
         2       136        70  -1.48228
         2       174        48   -4.1875
         2       134        70  -1.48228
         2       139        70  -1.48228
         2       173        49   -4.1875
         2       138        72  -1.48228
         2       174        49   -4.1875
         2       138        71  -1.48228
         2       138        69  -1.48228
         2       174        50   -4.1875
        22         0 # stress period 28
         2       174        48  -3.45659
         2       137        70  -2.37048
         2       171        44  -1.13151
         2       171        46  -1.13151
         2       174        50  -3.45659
         2       170        45  -1.13151
         2       138        70  -2.37048
         2       150        65 -0.306213
         2       138        69  -2.37048
         2       139        70  -2.37048
         2       173        49  -3.45659
         2       138        72  -2.37048
         2       149        64 -0.306213
         2       134        70  -2.37048
         2       174        49  -3.45659
         2       135        70  -2.37048
         2       171        45  -1.13151
         2       149        65 -0.306213
         2       136        70  -2.37048
         2       175        49  -3.45659
         2       138        71  -2.37048
         2       172        45  -1.13151
        19         0 # stress period 29
         2       174        48-0.0900565
         2       171        45  -4.24595
         2       174        50-0.0900565
         2       138        71 -0.834138
         2       138        69 -0.834138
         2       171        46  -4.24595
         2       174        49-0.0900565
         2       170        45  -4.24595
         2       173        49-0.0900565
         2       139        70 -0.834138
         2       171        44  -4.24595
         2       172        45  -4.24595
         2       135        70 -0.834138
         2       137        70 -0.834138
         2       138        70 -0.834138
         2       134        70 -0.834138
         2       175        49-0.0900565
         2       136        70 -0.834138
         2       138        72 -0.834138
        19         0 # stress period 30
         2       138        69  -2.20701
         2       136        70  -2.20701
         2       170        45  -4.34137
         2       174        49 -0.198666
         2       171        44  -4.34137
         2       134        70  -2.20701
         2       139        70  -2.20701
         2       172        45  -4.34137
         2       173        49 -0.198666
         2       138        72  -2.20701
         2       175        49 -0.198666
         2       171        46  -4.34137
         2       138        71  -2.20701
         2       137        70  -2.20701
         2       171        45  -4.34137
         2       174        50 -0.198666
         2       174        48 -0.198666
         2       135        70  -2.20701
         2       138        70  -2.20701
        19         0 # stress period 31
         2       174        48 -0.307275
         2       135        70   -2.3168
         2       171        44  -4.20873
         2       170        45  -4.20873
         2       171        46  -4.20873
         2       136        70   -2.3168
         2       171        45  -4.20873
         2       173        49 -0.307275
         2       175        49 -0.307275
         2       134        70   -2.3168
         2       138        72   -2.3168
         2       139        70   -2.3168
         2       138        70   -2.3168
         2       174        49 -0.307275
         2       137        70   -2.3168
         2       174        50 -0.307275
         2       138        71   -2.3168
         2       138        69   -2.3168
         2       172        45  -4.20873
        19         0 # stress period 32
         2       175        49 -0.415884
         2       174        49 -0.415884
         2       138        69  -2.21114
         2       170        45   -4.3193
         2       139        70  -2.21114
         2       174        50 -0.415884
         2       172        45   -4.3193
         2       173        49 -0.415884
         2       138        72  -2.21114
         2       138        70  -2.21114
         2       174        48 -0.415884
         2       171        45   -4.3193
         2       137        70  -2.21114
         2       138        71  -2.21114
         2       135        70  -2.21114
         2       136        70  -2.21114
         2       171        46   -4.3193
         2       134        70  -2.21114
         2       171        44   -4.3193
        19         0 # stress period 33
         2       138        72 -0.749837
         2       174        50 -0.556917
         2       174        48 -0.556917
         2       175        49 -0.556917
         2       172        45   -4.3025
         2       171        46   -4.3025
         2       138        70 -0.749837
         2       171        44   -4.3025
         2       174        49 -0.556917
         2       171        45   -4.3025
         2       137        70 -0.749837
         2       139        70 -0.749837
         2       138        69 -0.749837
         2       134        70 -0.749837
         2       135        70 -0.749837
         2       170        45   -4.3025
         2       136        70 -0.749837
         2       173        49 -0.556917
         2       138        71 -0.749837
        19         0 # stress period 34
         2       171        44  -4.15679
         2       138        71  -1.65085
         2       136        70  -1.65085
         2       137        70  -1.65085
         2       138        70  -1.65085
         2       134        70  -1.65085
         2       138        72  -1.65085
         2       171        45  -4.15679
         2       174        48  -2.72952
         2       135        70  -1.65085
         2       171        46  -4.15679
         2       139        70  -1.65085
         2       138        69  -1.65085
         2       173        49  -2.72952
         2       174        50  -2.72952
         2       174        49  -2.72952
         2       172        45  -4.15679
         2       170        45  -4.15679
         2       175        49  -2.72952
        19         0 # stress period 35
         2       137        70 -0.430091
         2       138        72 -0.430091
         2       138        70 -0.430091
         2       173        49  -3.90149
         2       134        70 -0.430091
         2       174        49  -3.90149
         2       174        50  -3.90149
         2       138        71 -0.430091
         2       172        45  -4.06275
         2       174        48  -3.90149
         2       171        45  -4.06275
         2       135        70 -0.430091
         2       139        70 -0.430091
         2       171        46  -4.06275
         2       171        44  -4.06275
         2       170        45  -4.06275
         2       175        49  -3.90149
         2       138        69 -0.430091
         2       136        70 -0.430091
        19         0 # stress period 36
         2       136        70  -1.17588
         2       138        69  -1.17588
         2       171        45  -3.23247
         2       171        46  -3.23247
         2       175        49  -4.00725
         2       137        70  -1.17588
         2       134        70  -1.17588
         2       135        70  -1.17588
         2       170        45  -3.23247
         2       174        49  -4.00725
         2       174        48  -4.00725
         2       173        49  -4.00725
         2       138        71  -1.17588
         2       138        70  -1.17588
         2       138        72  -1.17588
         2       174        50  -4.00725
         2       172        45  -3.23247
         2       139        70  -1.17588
         2       171        44  -3.23247
        19         0 # stress period 37
         2       136        70  -1.95813
         2       171        46  -4.11076
         2       172        45  -4.11076
         2       138        71  -1.95813
         2       138        69  -1.95813
         2       139        70  -1.95813
         2       170        45  -4.11076
         2       171        44  -4.11076
         2       173        49  -3.78971
         2       134        70  -1.95813
         2       174        50  -3.78971
         2       174        49  -3.78971
         2       174        48  -3.78971
         2       138        70  -1.95813
         2       135        70  -1.95813
         2       138        72  -1.95813
         2       171        45  -4.11076
         2       137        70  -1.95813
         2       175        49  -3.78971
        19         0 # stress period 38
         2       172        45  -4.20496
         2       138        72 -0.583178
         2       171        45  -4.20496
         2       174        49  -1.12433
         2       135        70 -0.583178
         2       138        71 -0.583178
         2       175        49  -1.12433
         2       173        49  -1.12433
         2       138        69 -0.583178
         2       136        70 -0.583178
         2       171        44  -4.20496
         2       139        70 -0.583178
         2       134        70 -0.583178
         2       138        70 -0.583178
         2       171        46  -4.20496
         2       174        50  -1.12433
         2       170        45  -4.20496
         2       174        48  -1.12433
         2       137        70 -0.583178
        19         0 # stress period 39
         2       138        70  -2.06872
         2       138        72  -2.06872