# RCH package for MODFLOW-NWT generated by Flopy 3.3.5
         1         1
         1        -1 # Stress period 1
CONSTANT    0.000000E+00                           #rech_1                        
         1        -1 # Stress period 2
CONSTANT    0.000000E+00                           #rech_2                        
         1        -1 # Stress period 3
CONSTANT    0.000000E+00                           #rech_3                        
         1        -1 # Stress period 4
CONSTANT    0.000000E+00                           #rech_4                        
         1        -1 # Stress period 5
CONSTANT    0.000000E+00                           #rech_5                        
         1        -1 # Stress period 6
CONSTANT    0.000000E+00                           #rech_6                        
         1        -1 # Stress period 7
CONSTANT    0.000000E+00                           #rech_7                        
         1        -1 # Stress period 8
CONSTANT    0.000000E+00                           #rech_8                        
         1        -1 # Stress period 9
CONSTANT    0.000000E+00                           #rech_9                        
         1        -1 # Stress period 10
CONSTANT    0.000000E+00                           #rech_10                       
         1        -1 # Stress period 11
CONSTANT    0.000000E+00                           #rech_11                       
         1        -1 # Stress period 12
CONSTANT    0.000000E+00                           #rech_12                       
         1        -1 # Stress period 13
CONSTANT    0.000000E+00                           #rech_13                       
         1        -1 # Stress period 14
CONSTANT    0.000000E+00                           #rech_14                       
         1        -1 # Stress period 15
CONSTANT    0.000000E+00                           #rech_15                       
         1        -1 # Stress period 16
CONSTANT    0.000000E+00                           #rech_16                       
         1        -1 # Stress period 17
CONSTANT    0.000000E+00                           #rech_17                       
         1        -1 # Stress period 18
CONSTANT    0.000000E+00                           #rech_18                       
         1        -1 # Stress period 19
CONSTANT    0.000000E+00                           #rech_19                       
         1        -1 # Stress period 20
CONSTANT    0.000000E+00                           #rech_20                       
         1        -1 # Stress period 21
CONSTANT    0.000000E+00                           #rech_21                       
         1        -1 # Stress period 22
CONSTANT    0.000000E+00                           #rech_22                       
         1        -1 # Stress period 23
CONSTANT    0.000000E+00                           #rech_23                       
         1        -1 # Stress period 24
CONSTANT    0.000000E+00                           #rech_24                       
         1        -1 # Stress period 25
CONSTANT    0.000000E+00                           #rech_25                       
         1        -1 # Stress period 26
CONSTANT    0.000000E+00                           #rech_26                       
         1        -1 # Stress period 27
CONSTANT    0.000000E+00                           #rech_27                       
         1        -1 # Stress period 28
CONSTANT    0.000000E+00                           #rech_28                       
         1        -1 # Stress period 29
CONSTANT    0.000000E+00                           #rech_29                       
         1        -1 # Stress period 30
CONSTANT    0.000000E+00                           #rech_30                       
         1        -1 # Stress period 31
CONSTANT    0.000000E+00                           #rech_31                       
         1        -1 # Stress period 32
CONSTANT    0.000000E+00                           #rech_32                       
         1        -1 # Stress period 33
CONSTANT    0.000000E+00                           #rech_33                       
         1        -1 # Stress period 34
CONSTANT    0.000000E+00                           #rech_34                       
         1        -1 # Stress period 35
CONSTANT    0.000000E+00                           #rech_35                       
         1        -1 # Stress period 36
CONSTANT    0.000000E+00                           #rech_36                       
         1        -1 # Stress period 37
CONSTANT    0.000000E+00                           #rech_37                       
         1        -1 # Stress period 38
CONSTANT    0.000000E+00                           #rech_38                       
         1        -1 # Stress period 39
CONSTANT    0.000000E+00                           #rech_39                       
         1        -1 # Stress period 40
CONSTANT    0.000000E+00                           #rech_40                       
         1        -1 # Stress period 41
CONSTANT    0.000000E+00                           #rech_41                       
         1        -1 # Stress period 42
CONSTANT    0.000000E+00                           #rech_42                       
         1        -1 # Stress period 43
CONSTANT    0.000000E+00                           #rech_43                       
         1        -1 # Stress period 44
CONSTANT    0.000000E+00                           #rech_44                       
         1        -1 # Stress period 45
CONSTANT    0.000000E+00                           #rech_45                       
         1        -1 # Stress period 46
CONSTANT    0.000000E+00                           #rech_46                       
         1        -1 # Stress period 47
CONSTANT    0.000000E+00                           #rech_47                       
         1        -1 # Stress period 48
CONSTANT    0.000000E+00                           #rech_48                       
         1        -1 # Stress period 49
CONSTANT    0.000000E+00                           #rech_49                       
         1        -1 # Stress period 50
CONSTANT    0.000000E+00                           #rech_50                       
         1        -1 # Stress period 51
CONSTANT    0.000000E+00                           #rech_51                       
         1        -1 # Stress period 52
CONSTANT    0.000000E+00                           #rech_52                       
         1        -1 # Stress period 53
CONSTANT    0.000000E+00                           #rech_53                       
         1        -1 # Stress period 54
CONSTANT    0.000000E+00                           #rech_54                       
         1        -1 # Stress period 55
CONSTANT    0.000000E+00                           #rech_55                       
         1        -1 # Stress period 56
CONSTANT    0.000000E+00                           #rech_56                       
         1        -1 # Stress period 57
CONSTANT    0.000000E+00                           #rech_57                       
         1        -1 # Stress period 58
CONSTANT    0.000000E+00                           #rech_58                       
         1        -1 # Stress period 59
CONSTANT    0.000000E+00                           #rech_59                       
         1        -1 # Stress period 60
CONSTANT    0.000000E+00                           #rech_60                       
         1        -1 # Stress period 61
CONSTANT    0.000000E+00                           #rech_61                       
         1        -1 # Stress period 62
CONSTANT    0.000000E+00                           #rech_62                       
         1        -1 # Stress period 63
CONSTANT    0.000000E+00                           #rech_63                       
         1        -1 # Stress period 64
CONSTANT    0.000000E+00                           #rech_64                       
         1        -1 # Stress period 65
CONSTANT    0.000000E+00                           #rech_65                       
         1        -1 # Stress period 66
CONSTANT    0.000000E+00                           #rech_66                       
         1        -1 # Stress period 67
CONSTANT    0.000000E+00                           #rech_67                       
         1        -1 # Stress period 68
CONSTANT    0.000000E+00                           #rech_68                       
         1        -1 # Stress period 69
CONSTANT    0.000000E+00                           #rech_69                       
         1        -1 # Stress period 70
CONSTANT    0.000000E+00                           #rech_70                       
         1        -1 # Stress period 71
CONSTANT    0.000000E+00                           #rech_71                       
         1        -1 # Stress period 72
CONSTANT    0.000000E+00                           #rech_72                       
         1        -1 # Stress period 73
CONSTANT    0.000000E+00                           #rech_73                       
         1        -1 # Stress period 74
CONSTANT    0.000000E+00                           #rech_74                       
         1        -1 # Stress period 75
CONSTANT    0.000000E+00                           #rech_75                       
         1        -1 # Stress period 76
CONSTANT    0.000000E+00                           #rech_76                       
         1        -1 # Stress period 77
CONSTANT    0.000000E+00                           #rech_77                       
         1        -1 # Stress period 78
CONSTANT    0.000000E+00                           #rech_78                       
         1        -1 # Stress period 79
CONSTANT    0.000000E+00                           #rech_79                       
         1        -1 # Stress period 80
CONSTANT    0.000000E+00                           #rech_80                       
         1        -1 # Stress period 81
CONSTANT    0.000000E+00                           #rech_81                       
         1        -1 # Stress period 82
CONSTANT    0.000000E+00                           #rech_82                       
         1        -1 # Stress period 83
CONSTANT    0.000000E+00                           #rech_83                       
         1        -1 # Stress period 84
CONSTANT    0.000000E+00                           #rech_84                       
         1        -1 # Stress period 85
CONSTANT    0.000000E+00                           #rech_85                       
         1        -1 # Stress period 86
CONSTANT    0.000000E+00                           #rech_86                       
         1        -1 # Stress period 87
CONSTANT    0.000000E+00                           #rech_87                       
         1        -1 # Stress period 88
CONSTANT    0.000000E+00                           #rech_88                       
         1        -1 # Stress period 89
CONSTANT    0.000000E+00                           #rech_89                       
         1        -1 # Stress period 90
CONSTANT    0.000000E+00                           #rech_90                       
         1        -1 # Stress period 91
CONSTANT    0.000000E+00                           #rech_91                       
         1        -1 # Stress period 92
CONSTANT    0.000000E+00                           #rech_92                       
         1        -1 # Stress period 93
CONSTANT    0.000000E+00                           #rech_93                       
         1        -1 # Stress period 94
CONSTANT    0.000000E+00                           #rech_94                       
         1        -1 # Stress period 95
CONSTANT    0.000000E+00                           #rech_95                       
         1        -1 # Stress period 96
CONSTANT    0.000000E+00                           #rech_96                       
         1        -1 # Stress period 97
CONSTANT    0.000000E+00                           #rech_97                       
         1        -1 # Stress period 98
CONSTANT    0.000000E+00                           #rech_98                       
         1        -1 # Stress period 99
CONSTANT    0.000000E+00                           #rech_99                       
         1        -1 # Stress period 100
CONSTANT    0.000000E+00                           #rech_100                      
         1        -1 # Stress period 101
INTERNAL               1 (132E15.6) -1 #rech_101                      
   0.000000E+00   0.000000E+00   0.000000E+00   0.000000E+00   0.000000E+00   0.000000E+00   0.000000E+00   0.000000E+00   0.000000E+00   0.000000E+00   0.000000E+00   0.000000E+00   0.000000E+00   0.000000E+00   0.000000E+00   0.000000E+00   0.000000E+00   0.000000E+00   0.000000E+00   0.000000E+00   0.000000E+00   0.000000E+00   0.000000E+00   0.000000E+00   0.000000E+00   0.000000E+00   0.000000E+00   0.000000E+00   0.000000E+00   0.000000E+00   0.000000E+00   0.000000E+00   0.000000E+00   0.000000E+00   0.000000E+00   0.000000E+00   0.000000E+00   0.000000E+00   0.000000E+00   0.000000E+00   0.000000E+00   0.000000E+00   0.000000E+00   0.000000E+00   0.000000E+00   0.000000E+00   0.000000E+00   0.000000E+00   0.000000E+00   0.000000E+00   0.000000E+00   0.000000E+00   0.000000E+00   0.000000E+00   0.000000E+00   0.000000E+00   0.000000E+00   0.000000E+00   0.000000E+00   0.000000E+00   0.000000E+00   0.000000E+00   0.000000E+00   0.000000E+00   0.000000E+00   0.000000E+00   0.000000E+00   0.000000E+00   0.000000E+00   0.000000E+00   0.000000E+00   0.000000E+00   0.000000E+00   0.000000E+00   0.000000E+00   0.000000E+00   0.000000E+00   0.000000E+00   0.000000E+00   0.000000E+00   0.000000E+00   0.000000E+00   0.000000E+00   0.000000E+00   0.000000E+00   0.000000E+00   0.000000E+00   0.000000E+00   0.000000E+00   0.000000E+00   0.000000E+00   0.000000E+00   0.000000E+00   0.000000E+00   0.000000E+00   0.000000E+00   0.000000E+00   0.000000E+00   0.000000E+00   0.000000E+00   0.000000E+00   0.000000E+00   0.000000E+00   0.000000E+00   0.000000E+00   0.000000E+00   0.000000E+00   0.000000E+00   0.000000E+00   0.000000E+00   0.000000E+00   0.000000E+00   0.000000E+00   0.000000E+00   0.000000E+00   0.000000E+00   0.000000E+00   0.000000E+00   0.000000E+00   0.000000E+00   0.000000E+00   0.000000E+00   0.000000E+00   0.000000E+00   0.000000E+00   0.000000E+00   0.000000E+00   0.000000E+00   0.000000E+00   0.000000E+00   0.000000E+00   0.000000E+00
   0.000000E+00   0.000000E+00   0.000000E+00   0.000000E+00   0.000000E+00   0.000000E+00   0.000000E+00   0.000000E+00   0.000000E+00   0.000000E+00   0.000000E+00   0.000000E+00   0.000000E+00   0.000000E+00   0.000000E+00   0.000000E+00   0.000000E+00   0.000000E+00   0.000000E+00   0.000000E+00   0.000000E+00   0.000000E+00   0.000000E+00   0.000000E+00   0.000000E+00   0.000000E+00   0.000000E+00   0.000000E+00   0.000000E+00   0.000000E+00   0.000000E+00   0.000000E+00   0.000000E+00   0.000000E+00   0.000000E+00   0.000000E+00   0.000000E+00   0.000000E+00   0.000000E+00   0.000000E+00   0.000000E+00   0.000000E+00   0.000000E+00   0.000000E+00   0.000000E+00   0.000000E+00   0.000000E+00   0.000000E+00   0.000000E+00   0.000000E+00   0.000000E+00   0.000000E+00   0.000000E+00   0.000000E+00   0.000000E+00   0.000000E+00   0.000000E+00   0.000000E+00   0.000000E+00   0.000000E+00   0.000000E+00   0.000000E+00   0.000000E+00   0.000000E+00   0.000000E+00   0.000000E+00   0.000000E+00   0.000000E+00   0.000000E+00   0.000000E+00   0.000000E+00   0.000000E+00   0.000000E+00   0.000000E+00   0.000000E+00   0.000000E+00   0.000000E+00   0.000000E+00   0.000000E+00   0.000000E+00   0.000000E+00   0.000000E+00   0.000000E+00   0.000000E+00   0.000000E+00   0.000000E+00   0.000000E+00   0.000000E+00   0.000000E+00   0.000000E+00   0.000000E+00   0.000000E+00   0.000000E+00   0.000000E+00   0.000000E+00   0.000000E+00   0.000000E+00   0.000000E+00   0.000000E+00   0.000000E+00   0.000000E+00   0.000000E+00   0.000000E+00   0.000000E+00   0.000000E+00   0.000000E+00   0.000000E+00   0.000000E+00   0.000000E+00   0.000000E+00   0.000000E+00   0.000000E+00   0.000000E+00   0.000000E+00   0.000000E+00   0.000000E+00   0.000000E+00   0.000000E+00   0.000000E+00   0.000000E+00   0.000000E+00   0.000000E+00   0.000000E+00   0.000000E+00   0.000000E+00   0.000000E+00   0.000000E+00   0.000000E+00   0.000000E+00   0.000000E+00   0.000000E+00   0.000000E+00
   0.000000E+00   0.000000E+00   0.000000E+00   0.000000E+00   0.000000E+00   0.000000E+00   0.000000E+00   0.000000E+00   0.000000E+00   0.000000E+00   0.000000E+00   0.000000E+00   0.000000E+00   0.000000E+00   0.000000E+00   0.000000E+00   0.000000E+00   0.000000E+00   0.000000E+00   0.000000E+00   0.000000E+00   0.000000E+00   0.000000E+00   0.000000E+00   0.000000E+00   0.000000E+00   0.000000E+00   0.000000E+00   0.000000E+00   0.000000E+00   0.000000E+00   0.000000E+00   0.000000E+00   0.000000E+00   0.000000E+00   0.000000E+00   0.000000E+00   0.000000E+00   0.000000E+00   0.000000E+00   0.000000E+00   0.000000E+00   0.000000E+00   0.000000E+00   0.000000E+00   0.000000E+00   0.000000E+00   0.000000E+00   0.000000E+00   0.000000E+00   0.000000E+00   0.000000E+00   0.000000E+00   0.000000E+00   0.000000E+00   0.000000E+00   0.000000E+00   0.000000E+00   0.000000E+00   0.000000E+00   0.000000E+00   0.000000E+00   0.000000E+00   0.000000E+00   0.000000E+00   0.000000E+00   0.000000E+00   0.000000E+00   0.000000E+00   0.000000E+00   0.000000E+00   0.000000E+00   0.000000E+00   0.000000E+00   0.000000E+00   0.000000E+00   0.000000E+00   0.000000E+00   0.000000E+00   0.000000E+00   0.000000E+00   0.000000E+00   0.000000E+00   0.000000E+00   0.000000E+00   0.000000E+00   0.000000E+00   0.000000E+00   0.000000E+00   0.000000E+00   0.000000E+00   0.000000E+00   0.000000E+00   0.000000E+00   0.000000E+00   0.000000E+00   0.000000E+00   0.000000E+00   0.000000E+00   0.000000E+00   0.000000E+00   0.000000E+00   0.000000E+00   0.000000E+00   0.000000E+00   0.000000E+00   0.000000E+00   0.000000E+00   0.000000E+00   0.000000E+00   0.000000E+00   0.000000E+00   0.000000E+00   0.000000E+00   0.000000E+00   0.000000E+00   0.000000E+00   0.000000E+00   0.000000E+00   0.000000E+00   0.000000E+00   0.000000E+00   0.000000E+00   0.000000E+00   0.000000E+00   0.000000E+00   0.000000E+00   0.000000E+00   0.000000E+00   0.000000E+00   0.000000E+00   0.000000E+00
   0.000000E+00   0.000000E+00   0.000000E+00   0.000000E+00   0.000000E+00   0.000000E+00   0.000000E+00   0.000000E+00   0.000000E+00   0.000000E+00   0.000000E+00   0.000000E+00   0.000000E+00   0.000000E+00   0.000000E+00   0.000000E+00   0.000000E+00   0.000000E+00   0.000000E+00   0.000000E+00   0.000000E+00   0.000000E+00   0.000000E+00   0.000000E+00   0.000000E+00   0.000000E+00   0.000000E+00   0.000000E+00   0.000000E+00   0.000000E+00   0.000000E+00   0.000000E+00   0.000000E+00   0.000000E+00   0.000000E+00   0.000000E+00   0.000000E+00   0.000000E+00   0.000000E+00   0.000000E+00   0.000000E+00   0.000000E+00   0.000000E+00   0.000000E+00   0.000000E+00   0.000000E+00   0.000000E+00   0.000000E+00   0.000000E+00   0.000000E+00   0.000000E+00   0.000000E+00   0.000000E+00   0.000000E+00   0.000000E+00   0.000000E+00   0.000000E+00   0.000000E+00   0.000000E+00   0.000000E+00   0.000000E+00   0.000000E+00   0.000000E+00   0.000000E+00   0.000000E+00   0.000000E+00   0.000000E+00   0.000000E+00   0.000000E+00   0.000000E+00   0.000000E+00   0.000000E+00   0.000000E+00   0.000000E+00   0.000000E+00   0.000000E+00   0.000000E+00   0.000000E+00   0.000000E+00   0.000000E+00   0.000000E+00   0.000000E+00   0.000000E+00   0.000000E+00   0.000000E+00   0.000000E+00   0.000000E+00   0.000000E+00   0.000000E+00   0.000000E+00   0.000000E+00   0.000000E+00   0.000000E+00   0.000000E+00   0.000000E+00   0.000000E+00   0.000000E+00   0.000000E+00   0.000000E+00   0.000000E+00   0.000000E+00   0.000000E+00   0.000000E+00   0.000000E+00   0.000000E+00   0.000000E+00   0.000000E+00   0.000000E+00   0.000000E+00   0.000000E+00   0.000000E+00   0.000000E+00   0.000000E+00   0.000000E+00   0.000000E+00   0.000000E+00   0.000000E+00   0.000000E+00   0.000000E+00   0.000000E+00   0.000000E+00   0.000000E+00   0.000000E+00   0.000000E+00   0.000000E+00   0.000000E+00   0.000000E+00   0.000000E+00   0.000000E+00   0.000000E+00   0.000000E+00   0.000000E+00
   0.000000E+00   0.000000E+00   0.000000E+00   0.000000E+00   0.000000E+00   0.000000E+00   0.000000E+00   0.000000E+00   0.000000E+00   0.000000E+00   0.000000E+00   0.000000E+00   0.000000E+00   0.000000E+00   0.000000E+00   0.000000E+00   0.000000E+00   0.000000E+00   0.000000E+00   0.000000E+00   0.000000E+00   0.000000E+00   0.000000E+00   0.000000E+00   0.000000E+00   0.000000E+00   0.000000E+00   0.000000E+00   0.000000E+00   0.000000E+00   0.000000E+00   0.000000E+00   0.000000E+00   0.000000E+00   0.000000E+00   0.000000E+00   0.000000E+00   0.000000E+00   0.000000E+00   0.000000E+00   0.000000E+00   0.000000E+00   0.000000E+00   0.000000E+00   0.000000E+00   0.000000E+00   0.000000E+00   0.000000E+00   0.000000E+00   0.000000E+00   0.000000E+00   0.000000E+00   0.000000E+00   0.000000E+00   0.000000E+00   0.000000E+00   0.000000E+00   0.000000E+00   0.000000E+00   0.000000E+00   0.000000E+00   0.000000E+00   0.000000E+00   0.000000E+00   0.000000E+00   0.000000E+00   0.000000E+00   0.000000E+00   0.000000E+00   0.000000E+00   0.000000E+00   0.000000E+00   0.000000E+00   0.000000E+00   0.000000E+00   0.000000E+00   0.000000E+00   0.000000E+00   0.000000E+00   0.000000E+00   0.000000E+00   0.000000E+00   0.000000E+00   0.000000E+00   0.000000E+00   0.000000E+00   0.000000E+00   0.000000E+00   0.000000E+00   0.000000E+00   0.000000E+00   0.000000E+00   0.000000E+00   0.000000E+00   0.000000E+00   0.000000E+00   0.000000E+00   0.000000E+00   0.000000E+00   0.000000E+00   0.000000E+00   0.000000E+00   0.000000E+00   0.000000E+00   0.000000E+00   0.000000E+00   0.000000E+00   0.000000E+00   0.000000E+00   0.000000E+00   0.000000E+00   0.000000E+00   0.000000E+00   0.000000E+00   0.000000E+00   0.000000E+00   0.000000E+00   0.000000E+00   0.000000E+00   0.000000E+00   0.000000E+00   0.000000E+00   0.000000E+00   0.000000E+00   0.000000E+00   0.000000E+00   0.000000E+00   0.000000E+00   0.000000E+00   0.000000E+00   0.000000E+00   0.000000E+00
   0.000000E+00   0.000000E+00   0.000000E+00   0.000000E+00   0.000000E+00   0.000000E+00   0.000000E+00   0.000000E+00   0.000000E+00   0.000000E+00   0.000000E+00   0.000000E+00   0.000000E+00   0.000000E+00   0.000000E+00   0.000000E+00   0.000000E+00   0.000000E+00   0.000000E+00   0.000000E+00   0.000000E+00   0.000000E+00   0.000000E+00   0.000000E+00   0.000000E+00   0.000000E+00   0.000000E+00   0.000000E+00   0.000000E+00   0.000000E+00   0.000000E+00   0.000000E+00   0.000000E+00   0.000000E+00   0.000000E+00   0.000000E+00   0.000000E+00   0.000000E+00   0.000000E+00   0.000000E+00   0.000000E+00   0.000000E+00   0.000000E+00   0.000000E+00   0.000000E+00   0.000000E+00   0.000000E+00   0.000000E+00   0.000000E+00   0.000000E+00   0.000000E+00   0.000000E+00   0.000000E+00   0.000000E+00   0.000000E+00   0.000000E+00   0.000000E+00   0.000000E+00   0.000000E+00   0.000000E+00   0.000000E+00   0.000000E+00   0.000000E+00   0.000000E+00   0.000000E+00   0.000000E+00   0.000000E+00   0.000000E+00   0.000000E+00   0.000000E+00   0.000000E+00   0.000000E+00   0.000000E+00   0.000000E+00   0.000000E+00   0.000000E+00   0.000000E+00   0.000000E+00   0.000000E+00   0.000000E+00   0.000000E+00   0.000000E+00   0.000000E+00   0.000000E+00   0.000000E+00   0.000000E+00   0.000000E+00   0.000000E+00   0.000000E+00   0.000000E+00   0.000000E+00   0.000000E+00   0.000000E+00   0.000000E+00   0.000000E+00   0.000000E+00   0.000000E+00   0.000000E+00   0.000000E+00   0.000000E+00   0.000000E+00   0.000000E+00   0.000000E+00   0.000000E+00   0.000000E+00   0.000000E+00   0.000000E+00   0.000000E+00   0.000000E+00   0.000000E+00   0.000000E+00   0.000000E+00   0.000000E+00   0.000000E+00   0.000000E+00   0.000000E+00   0.000000E+00   0.000000E+00   0.000000E+00   0.000000E+00   0.000000E+00   0.000000E+00   0.000000E+00   0.000000E+00   0.000000E+00   0.000000E+00   0.000000E+00   0.000000E+00   0.000000E+00   0.000000E+00   0.000000E+00   0.000000E+00
   0.000000E+00   0.000000E+00   0.000000E+00   0.000000E+00   0.000000E+00   0.000000E+00   0.000000E+00   0.000000E+00   0.000000E+00   0.000000E+00   0.000000E+00   0.000000E+00   0.000000E+00   0.000000E+00   0.000000E+00   0.000000E+00   0.000000E+00   0.000000E+00   0.000000E+00   0.000000E+00   0.000000E+00   0.000000E+00   0.000000E+00   0.000000E+00   0.000000E+00   0.000000E+00   0.000000E+00   0.000000E+00   0.000000E+00   0.000000E+00   0.000000E+00   0.000000E+00   0.000000E+00   0.000000E+00   0.000000E+00   0.000000E+00   0.000000E+00   0.000000E+00   0.000000E+00   0.000000E+00   0.000000E+00   0.000000E+00   0.000000E+00   0.000000E+00   0.000000E+00   0.000000E+00   0.000000E+00   0.000000E+00   0.000000E+00   0.000000E+00   0.000000E+00   0.000000E+00   0.000000E+00   0.000000E+00   0.000000E+00   0.000000E+00   0.000000E+00   0.000000E+00   0.000000E+00   0.000000E+00   0.000000E+00   0.000000E+00   0.000000E+00   0.000000E+00   0.000000E+00   0.000000E+00   0.000000E+00   0.000000E+00   0.000000E+00   0.000000E+00   0.000000E+00   0.000000E+00   0.000000E+00   0.000000E+00   0.000000E+00   0.000000E+00   0.000000E+00   0.000000E+00   0.000000E+00   0.000000E+00   0.000000E+00   0.000000E+00   0.000000E+00   0.000000E+00   0.000000E+00   0.000000E+00   0.000000E+00   0.000000E+00   0.000000E+00   0.000000E+00   0.000000E+00   0.000000E+00   0.000000E+00   0.000000E+00   0.000000E+00   0.000000E+00   0.000000E+00   0.000000E+00   0.000000E+00   0.000000E+00   0.000000E+00   0.000000E+00   0.000000E+00   0.000000E+00   0.000000E+00   0.000000E+00   0.000000E+00   0.000000E+00   0.000000E+00   0.000000E+00   0.000000E+00   0.000000E+00   0.000000E+00   0.000000E+00   0.000000E+00   0.000000E+00   0.000000E+00   0.000000E+00   0.000000E+00   0.000000E+00   0.000000E+00   0.000000E+00   0.000000E+00   0.000000E+00   0.000000E+00   0.000000E+00   0.000000E+00   0.000000E+00   0.000000E+00   0.000000E+00   0.000000E+00   0.000000E+00
   0.000000E+00   0.000000E+00   0.000000E+00   0.000000E+00   0.000000E+00   0.000000E+00   0.000000E+00   0.000000E+00   0.000000E+00   0.000000E+00   0.000000E+00   0.000000E+00   0.000000E+00   0.000000E+00   0.000000E+00   0.000000E+00   0.000000E+00   0.000000E+00   0.000000E+00   0.000000E+00   0.000000E+00   0.000000E+00   0.000000E+00   0.000000E+00   0.000000E+00   0.000000E+00   0.000000E+00   0.000000E+00   0.000000E+00   0.000000E+00   0.000000E+00   0.000000E+00   0.000000E+00   0.000000E+00   0.000000E+00   0.000000E+00   0.000000E+00   0.000000E+00   0.000000E+00   0.000000E+00   0.000000E+00   0.000000E+00   0.000000E+00   0.000000E+00   0.000000E+00   0.000000E+00   0.000000E+00   0.000000E+00   0.000000E+00   0.000000E+00   0.000000E+00   0.000000E+00   0.000000E+00   0.000000E+00   0.000000E+00   0.000000E+00   0.000000E+00   0.000000E+00   0.000000E+00   0.000000E+00   0.000000E+00   0.000000E+00   0.000000E+00   0.000000E+00   0.000000E+00   0.000000E+00   0.000000E+00   0.000000E+00   0.000000E+00   0.000000E+00   0.000000E+00   0.000000E+00   0.000000E+00   0.000000E+00   0.000000E+00   0.000000E+00   0.000000E+00   0.000000E+00   0.000000E+00   0.000000E+00   0.000000E+00   0.000000E+00   0.000000E+00   0.000000E+00   0.000000E+00   0.000000E+00   0.000000E+00   0.000000E+00   0.000000E+00   0.000000E+00   0.000000E+00   0.000000E+00   0.000000E+00   0.000000E+00   0.000000E+00   0.000000E+00   0.000000E+00   0.000000E+00   0.000000E+00   0.000000E+00   0.000000E+00   0.000000E+00   0.000000E+00   0.000000E+00   0.000000E+00   0.000000E+00   0.000000E+00   0.000000E+00   0.000000E+00   0.000000E+00   0.000000E+00   0.000000E+00   0.000000E+00   0.000000E+00   0.000000E+00   0.000000E+00   0.000000E+00   0.000000E+00   0.000000E+00   0.000000E+00   0.000000E+00   0.000000E+00   0.000000E+00   0.000000E+00   0.000000E+00   0.000000E+00   0.000000E+00   0.000000E+00   0.000000E+00   0.000000E+00   0.000000E+00   0.000000E+00