# WEL package for MODFLOW-NWT generated by Flopy 3.3.5
        25         1 
        25         0 # stress period 1
         2       134        70  -2.15388
         2       136        70  -2.15388
         2       175        49  -4.08622
         2       137        70  -2.15388
         2       138        69  -2.15388
         2       138        70  -2.15388
         2       174        50  -4.08622
         2       138        71  -2.15388
         2       138        72  -2.15388
         2       172        45  -4.65532
         2       174        49  -4.08622
         2       171        44  -4.65532
         2       147        65  -2.67315
         2       171        46  -4.65532
         2       174        48  -4.08622
         2       148        65  -2.67315
         2       149        64   -5.3887
         2       173        49  -4.08622
         2       149        65   -5.3887
         2       171        45  -4.65532
         2       150        65   -5.3887
         2       170        45  -4.65532
         2       147        64  -2.67315
         2       135        70  -2.15388
         2       139        70  -2.15388
        25         0 # stress period 2
         2       171        44  -4.71909
         2       138        69  -1.92297
         2       138        72  -1.92297
         2       174        49    -3.745
         2       147        65  -3.75214
         2       174        50    -3.745
         2       138        70  -1.92297
         2       139        70  -1.92297
         2       171        45  -4.71909
         2       136        70  -1.92297
         2       172        45  -4.71909
         2       170        45  -4.71909
         2       138        71  -1.92297
         2       149        64  -2.37463
         2       171        46  -4.71909
         2       150        65  -2.37463
         2       135        70  -1.92297
         2       137        70  -1.92297
         2       175        49    -3.745
         2       149        65  -2.37463
         2       147        64  -3.75214
         2       148        65  -3.75214
         2       174        48    -3.745
         2       173        49    -3.745
         2       134        70  -1.92297
        25         0 # stress period 3
         2       138        72   -2.4003
         2       139        70   -2.4003
         2       149        65  -5.03341
         2       147        64  -4.07979
         2       135        70   -2.4003
         2       171        46  -5.58974
         2       172        45  -5.58974
         2       173        49  -2.73592
         2       150        65  -5.03341
         2       175        49  -2.73592
         2       174        49  -2.73592
         2       171        45  -5.58974
         2       147        65  -4.07979
         2       137        70   -2.4003
         2       149        64  -5.03341
         2       174        50  -2.73592
         2       138        70   -2.4003
         2       138        69   -2.4003
         2       136        70   -2.4003
         2       174        48  -2.73592
         2       170        45  -5.58974
         2       171        44  -5.58974
         2       138        71   -2.4003
         2       134        70   -2.4003
         2       148        65  -4.07979
        25         0 # stress period 4
         2       139        70  -3.54502
         2       171        44  -5.79246
         2       135        70  -3.54502
         2       138        69  -3.54502
         2       174        48  -4.09096
         2       148        65 -0.315826
         2       137        70  -3.54502
         2       149        65  -4.63206
         2       173        49  -4.09096
         2       175        49  -4.09096
         2       147        64 -0.315826
         2       138        71  -3.54502
         2       171        46  -5.79246
         2       172        45  -5.79246
         2       150        65  -4.63206
         2       174        50  -4.09096
         2       134        70  -3.54502
         2       149        64  -4.63206
         2       136        70  -3.54502
         2       170        45  -5.79246
         2       138        70  -3.54502
         2       171        45  -5.79246
         2       138        72  -3.54502
         2       147        65 -0.315826
         2       174        49  -4.09096
        25         0 # stress period 5
         2       149        64  -5.44371
         2       147        64 -0.810211
         2       175        49  -4.05117
         2       147        65 -0.810211
         2       173        49  -4.05117
         2       174        48  -4.05117
         2       171        46  -6.10075
         2       136        70  -3.67169
         2       135        70  -3.67169
         2       172        45  -6.10075
         2       138        72  -3.67169
         2       134        70  -3.67169
         2       171        45  -6.10075
         2       138        71  -3.67169
         2       174        49  -4.05117
         2       170        45  -6.10075
         2       139        70  -3.67169
         2       150        65  -5.44371
         2       138        70  -3.67169
         2       174        50  -4.05117
         2       149        65  -5.44371
         2       148        65 -0.810211
         2       171        44  -6.10075
         2       138        69  -3.67169
         2       137        70  -3.67169
        25         0 # stress period 6
         2       170        45  -5.27496
         2       138        69  -3.76099
         2       174        50  -4.08597
         2       136        70  -3.76099
         2       138        70  -3.76099
         2       171        44  -5.27496
         2       138        71  -3.76099
         2       138        72  -3.76099
         2       172        45  -5.27496
         2       149        64  -2.97493
         2       171        45  -5.27496
         2       147        64   -1.3046
         2       171        46  -5.27496
         2       134        70  -3.76099
         2       137        70  -3.76099
         2       175        49  -4.08597
         2       139        70  -3.76099
         2       135        70  -3.76099
         2       173        49  -4.08597
         2       150        65  -2.97493
         2       149        65  -2.97493
         2       174        48  -4.08597
         2       148        65   -1.3046
         2       147        65   -1.3046
         2       174        49  -4.08597
        25         0 # stress period 7
         2       147        64  -3.56605
         2       171        46   -5.9278
         2       139        70  -3.61799
         2       174        50  -4.19143
         2       138        69  -3.61799
         2       172        45   -5.9278
         2       174        49  -4.19143
         2       147        65  -3.56605
         2       138        71  -3.61799
         2       175        49  -4.19143
         2       136        70  -3.61799
         2       138        70  -3.61799
         2       174        48  -4.19143
         2       138        72  -3.61799
         2       137        70  -3.61799
         2       149        65  -1.85481
         2       173        49  -4.19143
         2       134        70  -3.61799
         2       171        45   -5.9278
         2       148        65  -3.56605
         2       135        70  -3.61799
         2       150        65  -1.85481
         2       149        64  -1.85481
         2       171        44   -5.9278
         2       170        45   -5.9278
        25         0 # stress period 8
         2       138        70  -3.44759
         2       171        46  -7.14203
         2       147        65  -5.29548
         2       174        48  -4.06135
         2       173        49  -4.06135
         2       175        49  -4.06135
         2       171        44  -7.14203
         2       147        64  -5.29548
         2       171        45  -7.14203
         2       174        50  -4.06135
         2       135        70  -3.44759
         2       138        69  -3.44759
         2       149        64  -3.72229
         2       149        65  -3.72229
         2       174        49  -4.06135
         2       170        45  -7.14203
         2       150        65  -3.72229
         2       172        45  -7.14203
         2       138        72  -3.44759
         2       138        71  -3.44759
         2       139        70  -3.44759
         2       148        65  -5.29548
         2       137        70  -3.44759
         2       136        70  -3.44759
         2       134        70  -3.44759
        25         0 # stress period 9
         2       173        49   -3.9182
         2       174        50   -3.9182
         2       134        70  -2.64481
         2       135        70  -2.64481
         2       170        45  -3.65859
         2       139        70  -2.64481
         2       175        49   -3.9182
         2       138        69  -2.64481
         2       171        45  -3.65859
         2       147        64  -3.99387
         2       172        45  -3.65859
         2       174        48   -3.9182
         2       136        70  -2.64481
         2       138        70  -2.64481
         2       147        65  -3.99387
         2       148        65  -3.99387
         2       171        44  -3.65859
         2       149        64  -4.05109
         2       150        65  -4.05109
         2       137        70  -2.64481
         2       174        49   -3.9182
         2       171        46  -3.65859
         2       149        65  -4.05109
         2       138        72  -2.64481
         2       138        71  -2.64481
        25         0 # stress period 10
         2       138        70  -3.33047
         2       147        64   -3.5121
         2       137        70  -3.33047
         2       150        65  -3.24482
         2       175        49  -3.52738
         2       138        71  -3.33047
         2       136        70  -3.33047
         2       138        72  -3.33047
         2       149        65  -3.24482
         2       174        49  -3.52738
         2       171        45  -2.23733
         2       139        70  -3.33047
         2       134        70  -3.33047
         2       135        70  -3.33047
         2       172        45  -2.23733
         2       173        49  -3.52738
         2       147        65   -3.5121
         2       174        48  -3.52738
         2       174        50  -3.52738
         2       171        46  -2.23733
         2       171        44  -2.23733
         2       138        69  -3.33047
         2       149        64  -3.24482
         2       148        65   -3.5121
         2       170        45  -2.23733
        25         0 # stress period 11
         2       137        70   -3.5076
         2       171        44  -1.22036
         2       174        50  -4.19602
         2       139        70   -3.5076
         2       138        69   -3.5076
         2       147        65  -5.25261
         2       148        65  -5.25261
         2       149        65  -4.46723
         2       134        70   -3.5076
         2       138        72   -3.5076
         2       171        46  -1.22036
         2       174        49  -4.19602
         2       149        64  -4.46723
         2       172        45  -1.22036
         2       150        65  -4.46723
         2       138        71   -3.5076
         2       174        48  -4.19602
         2       135        70   -3.5076
         2       138        70   -3.5076
         2       147        64  -5.25261
         2       170        45  -1.22036
         2       173        49  -4.19602
         2       171        45  -1.22036
         2       136        70   -3.5076
         2       175        49  -4.19602
        25         0 # stress period 12
         2       136        70  -2.20768
         2       147        64  -5.05787
         2       149        65  -5.43832
         2       175        49  -4.04487
         2       172        45  -2.50947
         2       173        49  -4.04487
         2       138        70  -2.20768
         2       174        48  -4.04487
         2       149        64  -5.43832
         2       174        49  -4.04487
         2       138        71  -2.20768
         2       134        70  -2.20768
         2       147        65  -5.05787
         2       171        44  -2.50947
         2       139        70  -2.20768
         2       148        65  -5.05787
         2       150        65  -5.43832
         2       138        69  -2.20768
         2       170        45  -2.50947
         2       171        46  -2.50947
         2       135        70  -2.20768
         2       174        50  -4.04487
         2       171        45  -2.50947
         2       137        70  -2.20768
         2       138        72  -2.20768
        25         0 # stress period 13
         2       172        45  -3.83641
         2       138        70  -1.39984
         2       150        65  -5.32998
         2       138        71  -1.39984
         2       138        69  -1.39984
         2       170        45  -3.83641
         2       171        44  -3.83641
         2       138        72  -1.39984
         2       174        50  -4.25793
         2       147        65  -5.18336
         2       147        64  -5.18336
         2       134        70  -1.39984
         2       135        70  -1.39984
         2       139        70  -1.39984
         2       149        64  -5.32998
         2       173        49  -4.25793
         2       171        45  -3.83641
         2       137        70  -1.39984
         2       175        49  -4.25793
         2       149        65  -5.32998
         2       174        48  -4.25793
         2       136        70  -1.39984
         2       174        49  -4.25793
         2       148        65  -5.18336
         2       171        46  -3.83641
        25         0 # stress period 14
         2       175        49  -4.16489
         2       147        64  -5.24272
         2       138        70   -2.2041
         2       171        44  -3.93603
         2       173        49  -4.16489
         2       139        70   -2.2041
         2       135        70   -2.2041
         2       170        45  -3.93603
         2       171        46  -3.93603
         2       171        45  -3.93603
         2       134        70   -2.2041
         2       174        48  -4.16489
         2       137        70   -2.2041
         2       172        45  -3.93603
         2       138        72   -2.2041
         2       174        49  -4.16489
         2       150        65  -5.37728
         2       174        50  -4.16489
         2       149        65  -5.37728
         2       136        70   -2.2041
         2       138        69   -2.2041
         2       149        64  -5.37728
         2       138        71   -2.2041
         2       148        65  -5.24272
         2       147        65  -5.24272
        25         0 # stress period 15
         2       170        45  -3.81602
         2       138        69  -2.09866
         2       147        65  -5.13481
         2       171        44  -3.81602
         2       149        64  -5.25669
         2       174        50  -4.06425
         2       136        70  -2.09866
         2       173        49  -4.06425
         2       149        65  -5.25669
         2       135        70  -2.09866
         2       138        71  -2.09866
         2       174        48  -4.06425
         2       148        65  -5.13481
         2       137        70  -2.09866
         2       139        70  -2.09866
         2       134        70  -2.09866
         2       138        72  -2.09866
         2       150        65  -5.25669
         2       138        70  -2.09866
         2       175        49  -4.06425
         2       147        64  -5.13481
         2       172        45  -3.81602
         2       174        49  -4.06425
         2       171        46  -3.81602
         2       171        45  -3.81602
        25         0 # stress period 16
         2       147        65  -5.05172
         2       138        72  -1.59773
         2       149        65  -5.19072
         2       134        70  -1.59773
         2       172        45  -3.04054
         2       174        50  -3.44125
         2       174        48  -3.44125
         2       171        45  -3.04054
         2       138        71  -1.59773
         2       149        64  -5.19072
         2       148        65  -5.05172
         2       173        49  -3.44125
         2       138        70  -1.59773
         2       171        44  -3.04054
         2       147        64  -5.05172
         2       170        45  -3.04054
         2       171        46  -3.04054
         2       150        65  -5.19072
         2       174        49  -3.44125
         2       139        70  -1.59773
         2       175        49  -3.44125
         2       137        70  -1.59773
         2       135        70  -1.59773
         2       136        70  -1.59773
         2       138        69  -1.59773
        25         0 # stress period 17
         2       139        70 -0.883179
         2       147        64  -5.06791
         2       138        69 -0.883179
         2       171        45  -3.17135
         2       149        65  -5.20101
         2       173        49  -3.88334
         2       137        70 -0.883179
         2       135        70 -0.883179
         2       174        50  -3.88334
         2       170        45  -3.17135
         2       138        71 -0.883179
         2       175        49  -3.88334
         2       171        46  -3.17135
         2       171        44  -3.17135
         2       150        65  -5.20101
         2       174        49  -3.88334
         2       174        48  -3.88334
         2       134        70 -0.883179
         2       147        65  -5.06791
         2       172        45  -3.17135
         2       148        65  -5.06791
         2       149        64  -5.20101
         2       136        70 -0.883179
         2       138        70 -0.883179
         2       138        72 -0.883179
        25         0 # stress period 18
         2       150        65  -5.18516
         2       135        70 -0.679615
         2       174        48  -4.14769
         2       174        49  -4.14769
         2       138        70 -0.679615
         2       149        65  -5.18516
         2       138        69 -0.679615
         2       136        70 -0.679615
         2       171        46   -3.9022
         2       148        65  -5.04098
         2       170        45   -3.9022
         2       175        49  -4.14769
         2       147        65  -5.04098
         2       174        50  -4.14769
         2       149        64  -5.18516
         2       171        45   -3.9022
         2       139        70 -0.679615
         2       173        49  -4.14769
         2       147        64  -5.04098
         2       137        70 -0.679615
         2       134        70 -0.679615
         2       138        71 -0.679615
         2       171        44   -3.9022
         2       172        45   -3.9022
         2       138        72 -0.679615
        25         0 # stress period 19
         2       138        70  -3.05593
         2       138        71  -3.05593
         2       171        46  -3.80102
         2       138        72  -3.05593
         2       172        45  -3.80102
         2       147        64  -4.99944
         2       147        65  -4.99944
         2       174        48  -4.01746
         2       174        49  -4.01746
         2       171        44  -3.80102
         2       136        70  -3.05593
         2       150        65  -5.12949
         2       149        65  -5.12949
         2       171        45  -3.80102
         2       139        70  -3.05593
         2       170        45  -3.80102
         2       134        70  -3.05593
         2       137        70  -3.05593
         2       173        49  -4.01746
         2       135        70  -3.05593
         2       149        64  -5.12949
         2       174        50  -4.01746
         2       175        49  -4.01746
         2       148        65  -4.99944
         2       138        69  -3.05593
        25         0 # stress period 20
         2       149        64  -5.19546
         2       174        49  -4.02682
         2       136        70  -3.18084
         2       171        45  -3.76539
         2       149        65  -5.19546
         2       138        72  -3.18084
         2       134        70  -3.18084
         2       138        71  -3.18084
         2       175        49  -4.02682
         2       173        49  -4.02682
         2       135        70  -3.18084
         2       147        65  -5.06476
         2       150        65  -5.19546
         2       138        69  -3.18084
         2       148        65  -5.06476
         2       171        46  -3.76539
         2       174        50  -4.02682
         2       138        70  -3.18084
         2       137        70  -3.18084
         2       170        45  -3.76539
         2       139        70  -3.18084
         2       172        45  -3.76539
         2       171        44  -3.76539
         2       174        48  -4.02682
         2       147        64  -5.06476
        25         0 # stress period 21
         2       134        70  -2.57425
         2       174        49  -4.04145
         2       138        69  -2.57425
         2       175        49  -4.04145
         2       171        44   -3.7704
         2       137        70  -2.57425
         2       135        70  -2.57425
         2       174        50  -4.04145
         2       138        71  -2.57425
         2       147        64  -4.55673
         2       173        49  -4.04145
         2       149        65  -4.56293
         2       171        45   -3.7704
         2       149        64  -4.56293
         2       138        72  -2.57425
         2       170        45   -3.7704
         2       139        70  -2.57425
         2       172        45   -3.7704
         2       148        65  -4.55673
         2       150        65  -4.56293
         2       136        70  -2.57425
         2       147        65  -4.55673
         2       174        48  -4.04145
         2       171        46   -3.7704
         2       138        70  -2.57425
        25         0 # stress period 22
         2       148        65  -4.02537
         2       147        64  -4.02537
         2       136        70  -2.90962
         2       172        45  -4.00095
         2       171        45  -4.00095
         2       138        71  -2.90962
         2       149        65 -0.150283
         2       138        72  -2.90962
         2       134        70  -2.90962
         2       173        49  -4.20331
         2       170        45  -4.00095
         2       139        70  -2.90962
         2       149        64 -0.150283
         2       147        65  -4.02537
         2       138        70  -2.90962
         2       150        65 -0.150283
         2       171        44  -4.00095
         2       171        46  -4.00095
         2       138        69  -2.90962
         2       174        48  -4.20331
         2       137        70  -2.90962
         2       175        49  -4.20331
         2       174        49  -4.20331
         2       174        50  -4.20331
         2       135        70  -2.90962
        25         0 # stress period 23
         2       138        71  -3.52287
         2       149        64 -0.395512
         2       173        49  -4.08233
         2       147        64  -1.09084
         2       150        65 -0.395512
         2       171        44  -3.80694
         2       139        70  -3.52287
         2       174        48  -4.08233
         2       149        65 -0.395512
         2       147        65  -1.09084
         2       134        70  -3.52287
         2       171        46  -3.80694
         2       138        69  -3.52287
         2       137        70  -3.52287
         2       135        70  -3.52287
         2       174        50  -4.08233
         2       138        72  -3.52287
         2       148        65  -1.09084
         2       138        70  -3.52287
         2       136        70  -3.52287
         2       171        45  -3.80694
         2       174        49  -4.08233
         2       170        45  -3.80694
         2       172        45  -3.80694
         2       175        49  -4.08233
        25         0 # stress period 24
         2       174        49  -4.13679
         2       148        65  -1.92976
         2       172        45  -3.88543
         2       149        64 -0.640741
         2       173        49  -4.13679
         2       136        70  -3.47893
         2       150        65 -0.640741
         2       134        70  -3.47893
         2       174        50  -4.13679
         2       138        69  -3.47893
         2       138        70  -3.47893
         2       137        70  -3.47893
         2       170        45  -3.88543
         2       139        70  -3.47893
         2       174        48  -4.13679
         2       171        46  -3.88543
         2       147        65  -1.92976
         2       149        65 -0.640741
         2       135        70  -3.47893
         2       175        49  -4.13679
         2       147        64  -1.92976
         2       171        44  -3.88543
         2       138        72  -3.47893
         2       171        45  -3.88543
         2       138        71  -3.47893
        25         0 # stress period 25
         2       139        70   -2.9783
         2       147        64  -4.15321
         2       171        46  -2.89209
         2       137        70   -2.9783
         2       174        48   -4.0888
         2       174        49   -4.0888
         2       147        65  -4.15321
         2       136        70   -2.9783
         2       175        49   -4.0888
         2       138        72   -2.9783
         2       148        65  -4.15321
         2       149        64  -1.81522
         2       134        70   -2.9783
         2       171        45  -2.89209
         2       138        71   -2.9783
         2       138        69   -2.9783
         2       174        50   -4.0888
         2       135        70   -2.9783
         2       149        65  -1.81522
         2       173        49   -4.0888
         2       150        65  -1.81522
         2       170        45  -2.89209
         2       138        70   -2.9783
         2       171        44  -2.89209
         2       172        45  -2.89209
        25         0 # stress period 26
         2       135        70  -2.08248
         2       138        69  -2.08248
         2       174        50  -4.10221
         2       175        49  -4.10221
         2       171        44  -3.84679
         2       148        65 -0.423733
         2       147        65 -0.423733
         2       138        71  -2.08248
         2       171        45  -3.84679
         2       137        70  -2.08248
         2       138        70  -2.08248
         2       174        48  -4.10221
         2       147        64 -0.423733
         2       174        49  -4.10221
         2       139        70  -2.08248
         2       150        65  -4.25896
         2       134        70  -2.08248
         2       171        46  -3.84679
         2       173        49  -4.10221
         2       136        70  -2.08248
         2       172        45  -3.84679
         2       149        64  -4.25896
         2       138        72  -2.08248
         2       149        65  -4.25896
         2       170        45  -3.84679
        25         0 # stress period 27
         2       150        65  -4.12935
         2       138        70  -2.73679
         2       175        49  -4.10337
         2       137        70  -2.73679
         2       135        70  -2.73679
         2       149        65  -4.12935
         2       136        70  -2.73679
         2       174        48  -4.10337
         2       148        65  -4.22403
         2       172        45  -2.45372
         2       171        44  -2.45372
         2       147        64  -4.22403
         2       134        70  -2.73679
         2       139        70  -2.73679
         2       173        49  -4.10337
         2       170        45  -2.45372
         2       138        72  -2.73679
         2       149        64  -4.12935
         2       174        49  -4.10337
         2       147        65  -4.22403
         2       138        71  -2.73679
         2       138        69  -2.73679
         2       174        50  -4.10337
         2       171        46  -2.45372
         2       171        45  -2.45372
        25         0 # stress period 28
         2       174        48  -3.97619
         2       137        70  -3.60256
         2       171        44  -3.70877
         2       171        46  -3.70877
         2       174        50  -3.97619
         2       170        45  -3.70877
         2       138        70  -3.60256
         2       150        65    -5.187
         2       138        69  -3.60256
         2       147        64  -5.12773
         2       139        70  -3.60256
         2       147        65  -5.12773
         2       173        49  -3.97619
         2       138        72  -3.60256
         2       149        64    -5.187
         2       134        70  -3.60256
         2       174        49  -3.97619
         2       135        70  -3.60256
         2       171        45  -3.70877
         2       149        65    -5.187
         2       136        70  -3.60256
         2       175        49  -3.97619
         2       138        71  -3.60256
         2       172        45  -3.70877
         2       148        65  -5.12773
        25         0 # stress period 29
         2       147        65  -5.08467