# WEL package for MODFLOW-NWT generated by Flopy 3.3.5
        25         1 
        16         0 # stress period 1
         2       175        49  -4.41728
         2       174        50  -4.41728
         2       172        45  -3.38347
         2       174        49  -4.41728
         2       171        44  -3.38347
         2       147        65 -0.180525
         2       171        46  -3.38347
         2       174        48  -4.41728
         2       148        65 -0.180525
         2       149        64  -6.09127
         2       173        49  -4.41728
         2       149        65  -6.09127
         2       171        45  -3.38347
         2       150        65  -6.09127
         2       170        45  -3.38347
         2       147        64 -0.180525
        16         0 # stress period 2
         2       171        44  -4.35997
         2       174        49  -2.47915
         2       147        65 -0.230098
         2       174        50  -2.47915
         2       171        45  -4.35997
         2       172        45  -4.35997
         2       170        45  -4.35997
         2       149        64  -6.09774
         2       171        46  -4.35997
         2       150        65  -6.09774
         2       175        49  -2.47915
         2       149        65  -6.09774
         2       147        64 -0.230098
         2       148        65 -0.230098
         2       174        48  -2.47915
         2       173        49  -2.47915
        16         0 # stress period 3
         2       149        65  -3.55717
         2       147        64 -0.772621
         2       171        46  -4.36718
         2       172        45  -4.36718
         2       173        49  -3.58146
         2       150        65  -3.55717
         2       175        49  -3.58146
         2       174        49  -3.58146
         2       171        45  -4.36718
         2       147        65 -0.772621
         2       149        64  -3.55717
         2       174        50  -3.58146
         2       174        48  -3.58146
         2       170        45  -4.36718
         2       171        44  -4.36718
         2       148        65 -0.772621
        16         0 # stress period 4
         2       171        44  -4.23296
         2       174        48  -4.35462
         2       148        65  -6.24347
         2       149        65  -1.08303
         2       173        49  -4.35462
         2       175        49  -4.35462
         2       147        64  -6.24347
         2       171        46  -4.23296
         2       172        45  -4.23296
         2       150        65  -1.08303
         2       174        50  -4.35462
         2       149        64  -1.08303
         2       170        45  -4.23296
         2       171        45  -4.23296
         2       147        65  -6.24347
         2       174        49  -4.35462
        16         0 # stress period 5
         2       149        64  -2.24317
         2       147        64  -6.18808
         2       175        49  -3.71527
         2       147        65  -6.18808
         2       173        49  -3.71527
         2       174        48  -3.71527
         2       171        46  -4.27216
         2       172        45  -4.27216
         2       171        45  -4.27216
         2       174        49  -3.71527
         2       170        45  -4.27216
         2       150        65  -2.24317
         2       174        50  -3.71527
         2       149        65  -2.24317
         2       148        65  -6.18808
         2       171        44  -4.27216
        16         0 # stress period 6
         2       170        45  -4.41931
         2       174        50 -0.174199
         2       171        44  -4.41931
         2       172        45  -4.41931
         2       149        64  -3.40332
         2       171        45  -4.41931
         2       147        64  -6.03239
         2       171        46  -4.41931
         2       175        49 -0.174199
         2       173        49 -0.174199
         2       150        65  -3.40332
         2       149        65  -3.40332
         2       174        48 -0.174199
         2       148        65  -6.03239
         2       147        65  -6.03239
         2       174        49 -0.174199
        16         0 # stress period 7
         2       147        64  -6.19454
         2       171        46  -4.30279
         2       174        50  -3.90044
         2       172        45  -4.30279
         2       174        49  -3.90044
         2       147        65  -6.19454
         2       175        49  -3.90044
         2       174        48  -3.90044
         2       149        65  -4.56347
         2       173        49  -3.90044
         2       171        45  -4.30279
         2       148        65  -6.19454
         2       150        65  -4.56347
         2       149        64  -4.56347
         2       171        44  -4.30279
         2       170        45  -4.30279
        16         0 # stress period 8
         2       171        46  -4.22355
         2       147        65  -4.28638
         2       174        48  -4.29944
         2       173        49  -4.29944
         2       175        49  -4.29944
         2       171        44  -4.22355
         2       147        64  -4.28638
         2       171        45  -4.22355
         2       174        50  -4.29944
         2       149        64  -5.70869
         2       149        65  -5.70869
         2       174        49  -4.29944
         2       170        45  -4.22355
         2       150        65  -5.70869
         2       172        45  -4.22355
         2       148        65  -4.28638
        16         0 # stress period 9
         2       173        49  -4.33909
         2       174        50  -4.33909
         2       170        45  -4.21934
         2       175        49  -4.33909
         2       171        45  -4.21934
         2       147        64-0.0865583
         2       172        45  -4.21934
         2       174        48  -4.33909
         2       147        65-0.0865583
         2       148        65-0.0865583
         2       171        44  -4.21934
         2       149        64    -6.049
         2       150        65    -6.049
         2       174        49  -4.33909
         2       171        46  -4.21934
         2       149        65    -6.049
        16         0 # stress period 10
         2       147        64 -0.193283
         2       150        65   -6.0642
         2       175        49  -4.32131
         2       149        65   -6.0642
         2       174        49  -4.32131
         2       171        45  -4.22658
         2       172        45  -4.22658
         2       173        49  -4.32131
         2       147        65 -0.193283
         2       174        48  -4.32131
         2       174        50  -4.32131
         2       171        46  -4.22658
         2       171        44  -4.22658
         2       149        64   -6.0642
         2       148        65 -0.193283
         2       170        45  -4.22658
        16         0 # stress period 11
         2       171        44  -4.21693
         2       174        50  -4.31491
         2       147        65  -3.78589
         2       148        65  -3.78589
         2       149        65   -5.7381
         2       171        46  -4.21693
         2       174        49  -4.31491
         2       149        64   -5.7381
         2       172        45  -4.21693
         2       150        65   -5.7381
         2       174        48  -4.31491
         2       147        64  -3.78589
         2       170        45  -4.21693
         2       173        49  -4.31491
         2       171        45  -4.21693
         2       175        49  -4.31491
        16         0 # stress period 12
         2       147        64  -5.79329
         2       149        65  -5.76131
         2       175        49  -4.19623
         2       172        45  -4.09721
         2       173        49  -4.19623
         2       174        48  -4.19623
         2       149        64  -5.76131
         2       174        49  -4.19623
         2       147        65  -5.79329
         2       171        44  -4.09721
         2       148        65  -5.79329
         2       150        65  -5.76131
         2       170        45  -4.09721
         2       171        46  -4.09721
         2       174        50  -4.19623
         2       171        45  -4.09721
        16         0 # stress period 13
         2       172        45   -4.1783
         2       150        65   -5.5325
         2       170        45   -4.1783
         2       171        44   -4.1783
         2       174        50  -4.28277
         2       147        65  -5.34293
         2       147        64  -5.34293
         2       149        64   -5.5325
         2       173        49  -4.28277
         2       171        45   -4.1783
         2       175        49  -4.28277
         2       149        65   -5.5325
         2       174        48  -4.28277
         2       174        49  -4.28277
         2       148        65  -5.34293
         2       171        46   -4.1783
        16         0 # stress period 14
         2       175        49  -4.21448
         2       147        64  -5.57131
         2       171        44  -4.10591
         2       173        49  -4.21448
         2       170        45  -4.10591
         2       171        46  -4.10591
         2       171        45  -4.10591
         2       174        48  -4.21448
         2       172        45  -4.10591
         2       174        49  -4.21448
         2       150        65  -5.62016
         2       174        50  -4.21448
         2       149        65  -5.62016
         2       149        64  -5.62016
         2       148        65  -5.57131
         2       147        65  -5.57131
        16         0 # stress period 15
         2       170        45  -4.10291
         2       147        65  -5.93353
         2       171        44  -4.10291
         2       149        64  -3.50317
         2       174        50  -4.21512
         2       173        49  -4.21512
         2       149        65  -3.50317
         2       174        48  -4.21512
         2       148        65  -5.93353
         2       150        65  -3.50317
         2       175        49  -4.21512
         2       147        64  -5.93353
         2       172        45  -4.10291
         2       174        49  -4.21512
         2       171        46  -4.10291
         2       171        45  -4.10291
        16         0 # stress period 16
         2       147        65  -5.80524
         2       149        65  -3.09845
         2       172        45  -4.12837
         2       174        50  -4.24311
         2       174        48  -4.24311
         2       171        45  -4.12837
         2       149        64  -3.09845
         2       148        65  -5.80524
         2       173        49  -4.24311
         2       171        44  -4.12837
         2       147        64  -5.80524
         2       170        45  -4.12837
         2       171        46  -4.12837
         2       150        65  -3.09845
         2       174        49  -4.24311
         2       175        49  -4.24311
        16         0 # stress period 17
         2       147        64  -5.75414
         2       171        45  -4.09649
         2       149        65  -5.73456
         2       173        49  -4.21295
         2       174        50  -4.21295
         2       170        45  -4.09649
         2       175        49  -4.21295
         2       171        46  -4.09649
         2       171        44  -4.09649
         2       150        65  -5.73456
         2       174        49  -4.21295
         2       174        48  -4.21295
         2       147        65  -5.75414
         2       172        45  -4.09649
         2       148        65  -5.75414
         2       149        64  -5.73456
        16         0 # stress period 18
         2       150        65  -5.58322
         2       174        48  -4.20755
         2       174        49  -4.20755
         2       149        65  -5.58322
         2       171        46  -4.09149
         2       148        65  -5.54839
         2       170        45  -4.09149
         2       175        49  -4.20755
         2       147        65  -5.54839
         2       174        50  -4.20755
         2       149        64  -5.58322
         2       171        45  -4.09149
         2       173        49  -4.20755
         2       147        64  -5.54839
         2       171        44  -4.09149
         2       172        45  -4.09149
        16         0 # stress period 19
         2       171        46   -3.0256
         2       172        45   -3.0256
         2       147        64  -5.32937
         2       147        65  -5.32937
         2       174        48  -4.30586
         2       174        49  -4.30586
         2       171        44   -3.0256
         2       150        65  -5.52503
         2       149        65  -5.52503
         2       171        45   -3.0256
         2       170        45   -3.0256
         2       173        49  -4.30586
         2       149        64  -5.52503
         2       174        50  -4.30586
         2       175        49  -4.30586
         2       148        65  -5.32937
        16         0 # stress period 20
         2       149        64  -5.74127
         2       174        49  -4.16258
         2       171        45  -4.05373
         2       149        65  -5.74127
         2       175        49  -4.16258
         2       173        49  -4.16258
         2       147        65  -5.83419
         2       150        65  -5.74127
         2       148        65  -5.83419
         2       171        46  -4.05373
         2       174        50  -4.16258
         2       170        45  -4.05373
         2       172        45  -4.05373
         2       171        44  -4.05373
         2       174        48  -4.16258
         2       147        64  -5.83419
        16         0 # stress period 21
         2       174        49    -4.197
         2       175        49    -4.197
         2       171        44  -4.08133
         2       174        50    -4.197
         2       147        64  -5.57451
         2       173        49    -4.197
         2       149        65   -5.6097
         2       171        45  -4.08133
         2       149        64   -5.6097
         2       170        45  -4.08133
         2       172        45  -4.08133
         2       148        65  -5.57451
         2       150        65   -5.6097
         2       147        65  -5.57451
         2       174        48    -4.197
         2       171        46  -4.08133
        16         0 # stress period 22
         2       148        65  -5.89095
         2       147        64  -5.89095
         2       172        45  -4.03216
         2       171        45  -4.03216
         2       149        65  -5.75466
         2       173        49  -4.14521
         2       170        45  -4.03216
         2       149        64  -5.75466
         2       147        65  -5.89095
         2       150        65  -5.75466
         2       171        44  -4.03216
         2       171        46  -4.03216
         2       174        48  -4.14521
         2       175        49  -4.14521
         2       174        49  -4.14521
         2       174        50  -4.14521
        16         0 # stress period 23
         2       149        64  -5.47587
         2       173        49  -4.23011
         2       147        64  -5.31461
         2       150        65  -5.47587
         2       171        44   -4.1149
         2       174        48  -4.23011
         2       149        65  -5.47587
         2       147        65  -5.31461
         2       171        46   -4.1149
         2       174        50  -4.23011
         2       148        65  -5.31461
         2       171        45   -4.1149
         2       174        49  -4.23011
         2       170        45   -4.1149
         2       172        45   -4.1149
         2       175        49  -4.23011
        16         0 # stress period 24
         2       174        49  -4.15211
         2       148        65  -5.85631
         2       172        45  -4.03773
         2       149        64  -5.75331
         2       173        49  -4.15211
         2       150        65  -5.75331
         2       174        50  -4.15211
         2       170        45  -4.03773
         2       174        48  -4.15211
         2       171        46  -4.03773
         2       147        65  -5.85631
         2       149        65  -5.75331
         2       175        49  -4.15211
         2       147        64  -5.85631
         2       171        44  -4.03773
         2       171        45  -4.03773
        16         0 # stress period 25
         2       147        64  -5.55256
         2       171        46   -4.0641
         2       174        48  -4.18284
         2       174        49  -4.18284
         2       147        65  -5.55256
         2       175        49  -4.18284
         2       148        65  -5.55256
         2       149        64   -5.4924
         2       171        45   -4.0641
         2       174        50  -4.18284
         2       149        65   -5.4924
         2       173        49  -4.18284
         2       150        65   -5.4924
         2       170        45   -4.0641
         2       171        44   -4.0641
         2       172        45   -4.0641
        16         0 # stress period 26
         2       174        50  -4.16396
         2       175        49  -4.16396
         2       171        44  -4.04179
         2       148        65  -5.58879
         2       147        65  -5.58879
         2       171        45  -4.04179
         2       174        48  -4.16396
         2       147        64  -5.58879
         2       174        49  -4.16396
         2       150        65  -5.63774
         2       171        46  -4.04179
         2       173        49  -4.16396
         2       172        45  -4.04179
         2       149        64  -5.63774
         2       149        65  -5.63774
         2       170        45  -4.04179
        16         0 # stress period 27
         2       150        65  -5.53809
         2       175        49  -1.26703
         2       149        65  -5.53809
         2       174        48  -1.26703
         2       148        65  -5.42473
         2       172        45  -4.00389
         2       171        44  -4.00389
         2       147        64  -5.42473
         2       173        49  -1.26703
         2       170        45  -4.00389
         2       149        64  -5.53809
         2       174        49  -1.26703
         2       147        65  -5.42473
         2       174        50  -1.26703
         2       171        46  -4.00389
         2       171        45  -4.00389
        16         0 # stress period 28
         2       174        48  -2.49829
         2       171        44  -4.05299
         2       171        46  -4.05299
         2       174        50  -2.49829
         2       170        45  -4.05299
         2       150        65  -5.76653
         2       147        64  -5.82308
         2       147        65  -5.82308
         2       173        49  -2.49829
         2       149        64  -5.76653
         2       174        49  -2.49829
         2       171        45  -4.05299
         2       149        65  -5.76653
         2       175        49  -2.49829
         2       172        45  -4.05299
         2       148        65  -5.82308
        16         0 # stress period 29
         2       147        65  -5.63342
         2       174        48  -4.18528
         2       171        45  -4.08713
         2       174        50  -4.18528
         2       171        46  -4.08713
         2       149        64  -5.66746
         2       174        49  -4.18528
         2       170        45  -4.08713
         2       173        49  -4.18528
         2       147        64  -5.63342
         2       171        44  -4.08713
         2       172        45  -4.08713
         2       148        65  -5.63342
         2       150        65  -5.66746
         2       175        49  -4.18528
         2       149        65  -5.66746
        16         0 # stress period 30
         2       147        65  -5.84854
         2       170        45  -4.02835
         2       174        49  -4.13449
         2       171        44  -4.02835
         2       147        64  -5.84854
         2       172        45  -4.02835
         2       173        49  -4.13449
         2       150        65  -5.75576
         2       149        65  -5.75576
         2       148        65  -5.84854
         2       175        49  -4.13449
         2       171        46  -4.02835
         2       171        45  -4.02835
         2       174        50  -4.13449
         2       174        48  -4.13449
         2       149        64  -5.75576
        16         0 # stress period 31
         2       174        48   -4.1395
         2       147        65  -5.69045
         2       171        44  -4.02188
         2       148        65  -5.69045
         2       170        45  -4.02188
         2       171        46  -4.02188
         2       147        64  -5.69045
         2       171        45  -4.02188
         2       149        64  -5.08409
         2       149        65  -5.08409
         2       150        65  -5.08409
         2       173        49   -4.1395
         2       175        49   -4.1395
         2       174        49   -4.1395
         2       174        50   -4.1395
         2       172        45  -4.02188
        16         0 # stress period 32
         2       147        64  -6.23949
         2       175        49  -2.86995
         2       174        49  -2.86995
         2       170        45 -0.894663
         2       174        50  -2.86995
         2       172        45 -0.894663
         2       149        64 -0.356116
         2       173        49  -2.86995
         2       150        65 -0.356116
         2       174        48  -2.86995
         2       171        45 -0.894663
         2       149        65 -0.356116
         2       171        46 -0.894663
         2       147        65  -6.23949
         2       148        65  -6.23949
         2       171        44 -0.894663
        16         0 # stress period 33
         2       174        50  -4.28922
         2       174        48  -4.28922
         2       175        49  -4.28922
         2       172        45  -1.29049
         2       171        46  -1.29049
         2       148        65  -6.17164
         2       150        65 -0.953367
         2       171        44  -1.29049
         2       174        49  -4.28922
         2       149        64 -0.953367
         2       147        64  -6.17164
         2       171        45  -1.29049
         2       147        65  -6.17164
         2       170        45  -1.29049
         2       149        65 -0.953367
         2       173        49  -4.28922
        16         0 # stress period 34
         2       149        64  -1.55062
         2       171        44  -2.24104
         2       149        65  -1.55062
         2       150        65  -1.55062
         2       147        65  -6.13633
         2       147        64  -6.13633
         2       171        45  -2.24104
         2       174        48  -2.42988
         2       148        65  -6.13633
         2       171        46  -2.24104
         2       173        49  -2.42988
         2       174        50  -2.42988
         2       174        49  -2.42988
         2       172        45  -2.24104
         2       170        45  -2.24104
         2       175        49  -2.42988
        16         0 # stress period 35
         2       173        49  -4.32344
         2       174        49  -4.32344
         2       174        50  -4.32344
         2       172        45   -3.1916
         2       174        48  -4.32344
         2       148        65  -6.30575
         2       171        45   -3.1916
         2       150        65  -2.14787
         2       147        64  -6.30575
         2       171        46   -3.1916
         2       149        65  -2.14787
         2       171        44   -3.1916
         2       170        45   -3.1916
         2       175        49  -4.32344
         2       147        65  -6.30575
         2       149        64  -2.14787
        16         0 # stress period 36
         2       148        65  -6.41958
         2       171        45  -4.03025
         2       171        46  -4.03025
         2       147        65  -6.41958
         2       175        49  -4.01906
         2       170        45  -4.03025
         2       174        49  -4.01906
         2       149        65  -2.74512
         2       174        48  -4.01906
         2       150        65  -2.74512
         2       149        64  -2.74512
         2       173        49  -4.01906
         2       174        50  -4.01906
         2       172        45  -4.03025
         2       147        64  -6.41958
         2       171        44  -4.03025
        16         0 # stress period 37
         2       171        46  -4.26758
         2       172        45  -4.26758
         2       149        64  -3.34237
         2       150        65  -3.34237
         2       149        65  -3.34237
         2       170        45  -4.26758
         2       147        64  -6.14352
         2       171        44  -4.26758
         2       147        65  -6.14352
         2       173        49   -1.7777
         2       148        65  -6.14352
         2       174        50   -1.7777
         2       174        49   -1.7777
         2       174        48   -1.7777
         2       171        45  -4.26758
         2       175        49   -1.7777
        16         0 # stress period 38
         2       172        45   -4.1734
         2       148        65  -6.30248
         2       171        45   -4.1734
         2       174        49  -4.26751
         2       147        65  -6.30248
         2       149        64  -3.93962
         2       175        49  -4.26751
         2       173        49  -4.26751
         2       147        64  -6.30248
         2       149        65  -3.93962
         2       171        44   -4.1734
         2       171        46   -4.1734
         2       174        50  -4.26751
         2       170        45   -4.1734
         2       174        48  -4.26751
         2       150        65  -3.93962
        16         0 # stress period 39
         2       171        44  -3.32353
         2       173        49   -4.2587
         2       147        64  -5.19231
         2       174        49   -4.2587
         2       171        46  -3.32353
         2       174        50   -4.2587
         2       170        45  -3.32353
         2       174        48   -4.2587
         2       175        49   -4.2587
         2       150        65  -3.93854
         2       149        64  -3.93854
         2       172        45  -3.32353
         2       148        65  -5.19231
         2       171        45  -3.32353
         2       147        65  -5.19231
         2       149        65  -3.93854
        16         0 # stress period 40
         2       172        45  -2.38563
         2       171        46  -2.38563
         2       149        65  -5.69699
         2       171        45  -2.38563
         2       170        45  -2.38563
         2       147        65   -5.5843
         2       174        48  -4.28598
         2       174        50  -4.28598
         2       147        64   -5.5843
         2       175        49  -4.28598
         2       173        49  -4.28598
         2       149        64  -5.69699
         2       171        44  -2.38563
         2       148        65   -5.5843
         2       150        65  -5.69699
         2       174        49  -4.28598
        16         0 # stress period 41
         2       173        49  -4.23374
         2       170        45  -4.13242
         2       174        49  -4.23374
         2       171        46  -4.13242
         2       148        65  -5.41437
         2       171        44  -4.13242
         2       174        48  -4.23374
         2       171        45  -4.13242
         2       175        49  -4.23374
         2       149        65  -4.83004
         2       149        64  -4.83004
         2       172        45  -4.13242
         2       147        64  -5.41437
         2       174        50  -4.23374
         2       147        65  -5.41437
         2       150        65  -4.83004
        16         0 # stress period 42
         2       172        45  -4.10827
         2       149        65   -1.4286
         2       173        49  -4.21001
         2       149        64   -1.4286
         2       171        44  -4.10827
         2       150        65   -1.4286
         2       170        45  -4.10827
         2       174        50  -4.21001
         2       171        45  -4.10827
         2       147        64  -6.26833
         2       174        49  -4.21001
         2       175        49  -4.21001
         2       171        46  -4.10827
         2       148        65  -6.26833
         2       174        48  -4.21001
         2       147        65  -6.26833
        16         0 # stress period 43
         2       149        64  -3.79648
         2       173        49  -4.20498
         2       170        45  -4.09359
         2       174        48  -4.20498
         2       174        50  -4.20498
         2       175        49  -4.20498
         2       171        44  -4.09359
         2       171        46  -4.09359
         2       150        65  -3.79648
         2       174        49  -4.20498
         2       147        64  -6.21853
         2       149        65  -3.79648
         2       148        65  -6.21853
         2       147        65  -6.21853
         2       171        45  -4.09359
         2       172        45  -4.09359