# WEL package for MODFLOW-NWT generated by Flopy 3.3.5
        22         1 
        22         0 # stress period 1
         2       134        70  -2.33653
         2       136        70  -2.33653
         2       175        49  -3.34596
         2       137        70  -2.33653
         2       138        69  -2.33653
         2       138        70  -2.33653
         2       174        50  -3.34596
         2       138        71  -2.33653
         2       138        72  -2.33653
         2       172        45  -3.36087
         2       174        49  -3.34596
         2       171        44  -3.36087
         2       171        46  -3.36087
         2       174        48  -3.34596
         2       149        64  -3.68282
         2       173        49  -3.34596
         2       149        65  -3.68282
         2       171        45  -3.36087
         2       150        65  -3.68282
         2       170        45  -3.36087
         2       135        70  -2.33653
         2       139        70  -2.33653
        22         0 # stress period 2
         2       171        44   -3.3425
         2       138        69  -2.41863
         2       138        72  -2.41863
         2       174        49 -0.183275
         2       174        50 -0.183275
         2       138        70  -2.41863
         2       139        70  -2.41863
         2       171        45   -3.3425
         2       136        70  -2.41863
         2       172        45   -3.3425
         2       170        45   -3.3425
         2       138        71  -2.41863
         2       149        64  -1.20962
         2       171        46   -3.3425
         2       150        65  -1.20962
         2       135        70  -2.41863
         2       137        70  -2.41863
         2       175        49 -0.183275
         2       149        65  -1.20962
         2       174        48 -0.183275
         2       173        49 -0.183275
         2       134        70  -2.41863
        22         0 # stress period 3
         2       138        72  -2.34451
         2       139        70  -2.34451
         2       149        65  -2.69686
         2       135        70  -2.34451
         2       171        46  -3.79499
         2       172        45  -3.79499
         2       173        49  -3.02221
         2       150        65  -2.69686
         2       175        49  -3.02221
         2       174        49  -3.02221
         2       171        45  -3.79499
         2       137        70  -2.34451
         2       149        64  -2.69686
         2       174        50  -3.02221
         2       138        70  -2.34451
         2       138        69  -2.34451
         2       136        70  -2.34451
         2       174        48  -3.02221
         2       170        45  -3.79499
         2       171        44  -3.79499
         2       138        71  -2.34451
         2       134        70  -2.34451
        22         0 # stress period 4
         2       139        70   -2.3942
         2       171        44  -4.13481
         2       135        70   -2.3942
         2       138        69   -2.3942
         2       174        48  -4.28993
         2       137        70   -2.3942
         2       149        65   -5.7162
         2       173        49  -4.28993
         2       175        49  -4.28993
         2       138        71   -2.3942
         2       171        46  -4.13481
         2       172        45  -4.13481
         2       150        65   -5.7162
         2       174        50  -4.28993
         2       134        70   -2.3942
         2       149        64   -5.7162
         2       136        70   -2.3942
         2       170        45  -4.13481
         2       138        70   -2.3942
         2       171        45  -4.13481
         2       138        72   -2.3942
         2       174        49  -4.28993
        22         0 # stress period 5
         2       149        64 -0.608539
         2       175        49  -4.44108
         2       173        49  -4.44108
         2       174        48  -4.44108
         2       171        46  -3.05623
         2       136        70   -2.3697
         2       135        70   -2.3697
         2       172        45  -3.05623
         2       138        72   -2.3697
         2       134        70   -2.3697
         2       171        45  -3.05623
         2       138        71   -2.3697
         2       174        49  -4.44108
         2       170        45  -3.05623
         2       139        70   -2.3697
         2       150        65 -0.608539
         2       138        70   -2.3697
         2       174        50  -4.44108
         2       149        65 -0.608539
         2       171        44  -3.05623
         2       138        69   -2.3697
         2       137        70   -2.3697
        22         0 # stress period 6
         2       170        45  -1.42553
         2       138        69   -2.2661
         2       174        50   -4.5237
         2       136        70   -2.2661
         2       138        70   -2.2661
         2       171        44  -1.42553
         2       138        71   -2.2661
         2       138        72   -2.2661
         2       172        45  -1.42553
         2       149        64  -1.83797
         2       171        45  -1.42553
         2       171        46  -1.42553
         2       134        70   -2.2661
         2       137        70   -2.2661
         2       175        49   -4.5237
         2       139        70   -2.2661
         2       135        70   -2.2661
         2       173        49   -4.5237
         2       150        65  -1.83797
         2       149        65  -1.83797
         2       174        48   -4.5237
         2       174        49   -4.5237
        22         0 # stress period 7
         2       171        46  -3.31127
         2       139        70  -2.33145
         2       174        50  -3.54538
         2       138        69  -2.33145
         2       172        45  -3.31127
         2       174        49  -3.54538
         2       138        71  -2.33145
         2       175        49  -3.54538
         2       136        70  -2.33145
         2       138        70  -2.33145
         2       174        48  -3.54538
         2       138        72  -2.33145
         2       137        70  -2.33145
         2       149        65  -4.70292
         2       173        49  -3.54538
         2       134        70  -2.33145
         2       171        45  -3.31127
         2       135        70  -2.33145
         2       150        65  -4.70292
         2       149        64  -4.70292
         2       171        44  -3.31127
         2       170        45  -3.31127
        22         0 # stress period 8
         2       138        70  -2.45924
         2       171        46  -3.75679
         2       174        48  -3.00991
         2       173        49  -3.00991
         2       175        49  -3.00991
         2       171        44  -3.75679
         2       171        45  -3.75679
         2       174        50  -3.00991
         2       135        70  -2.45924
         2       138        69  -2.45924
         2       149        64  -5.03871
         2       149        65  -5.03871
         2       174        49  -3.00991
         2       170        45  -3.75679
         2       150        65  -5.03871
         2       172        45  -3.75679
         2       138        72  -2.45924
         2       138        71  -2.45924
         2       139        70  -2.45924
         2       137        70  -2.45924
         2       136        70  -2.45924
         2       134        70  -2.45924
        22         0 # stress period 9
         2       173        49 -0.985288
         2       174        50 -0.985288
         2       134        70  -1.51722
         2       135        70  -1.51722
         2       170        45  -4.51373
         2       139        70  -1.51722
         2       175        49 -0.985288
         2       138        69  -1.51722
         2       171        45  -4.51373
         2       172        45  -4.51373
         2       174        48 -0.985288
         2       136        70  -1.51722
         2       138        70  -1.51722
         2       171        44  -4.51373
         2       149        64  -1.37667
         2       150        65  -1.37667
         2       137        70  -1.51722
         2       174        49 -0.985288
         2       171        46  -4.51373
         2       149        65  -1.37667
         2       138        72  -1.51722
         2       138        71  -1.51722
        22         0 # stress period 10
         2       138        70  -2.38527
         2       137        70  -2.38527
         2       150        65   -3.7781
         2       175        49  -2.43709
         2       138        71  -2.38527
         2       136        70  -2.38527
         2       138        72  -2.38527
         2       149        65   -3.7781
         2       174        49  -2.43709
         2       171        45  -4.50552
         2       139        70  -2.38527
         2       134        70  -2.38527
         2       135        70  -2.38527
         2       172        45  -4.50552
         2       173        49  -2.43709
         2       174        48  -2.43709
         2       174        50  -2.43709
         2       171        46  -4.50552
         2       171        44  -4.50552
         2       138        69  -2.38527
         2       149        64   -3.7781
         2       170        45  -4.50552
        22         0 # stress period 11
         2       137        70  -2.37494
         2       171        44  -4.19768
         2       174        50  -2.58507
         2       139        70  -2.37494
         2       138        69  -2.37494
         2       149        65  -4.85427
         2       134        70  -2.37494
         2       138        72  -2.37494
         2       171        46  -4.19768
         2       174        49  -2.58507
         2       149        64  -4.85427
         2       172        45  -4.19768
         2       150        65  -4.85427
         2       138        71  -2.37494
         2       174        48  -2.58507
         2       135        70  -2.37494
         2       138        70  -2.37494
         2       170        45  -4.19768
         2       173        49  -2.58507
         2       171        45  -4.19768
         2       136        70  -2.37494
         2       175        49  -2.58507
        22         0 # stress period 12
         2       136        70  -2.29568
         2       149        65  -3.24586
         2       175        49 -0.094855
         2       172        45  -4.60419
         2       173        49 -0.094855
         2       138        70  -2.29568
         2       174        48 -0.094855
         2       149        64  -3.24586
         2       174        49 -0.094855
         2       138        71  -2.29568
         2       134        70  -2.29568
         2       171        44  -4.60419
         2       139        70  -2.29568
         2       150        65  -3.24586
         2       138        69  -2.29568
         2       170        45  -4.60419
         2       171        46  -4.60419
         2       135        70  -2.29568
         2       174        50 -0.094855
         2       171        45  -4.60419
         2       137        70  -2.29568
         2       138        72  -2.29568
        22         0 # stress period 13
         2       172        45  -3.94289
         2       138        70  -2.28567
         2       150        65  -4.81107
         2       138        71  -2.28567
         2       138        69  -2.28567
         2       170        45  -3.94289
         2       171        44  -3.94289
         2       138        72  -2.28567
         2       174        50 -0.532512
         2       134        70  -2.28567
         2       135        70  -2.28567
         2       139        70  -2.28567
         2       149        64  -4.81107
         2       173        49 -0.532512
         2       171        45  -3.94289
         2       137        70  -2.28567
         2       175        49 -0.532512
         2       149        65  -4.81107
         2       174        48 -0.532512
         2       136        70  -2.28567
         2       174        49 -0.532512
         2       171        46  -3.94289
        22         0 # stress period 14
         2       175        49 -0.413772
         2       138        70  -2.43846
         2       171        44  -4.76765
         2       173        49 -0.413772
         2       139        70  -2.43846
         2       135        70  -2.43846
         2       170        45  -4.76765
         2       171        46  -4.76765
         2       171        45  -4.76765
         2       134        70  -2.43846
         2       174        48 -0.413772
         2       137        70  -2.43846
         2       172        45  -4.76765
         2       138        72  -2.43846
         2       174        49 -0.413772
         2       150        65   -2.0257
         2       174        50 -0.413772
         2       149        65   -2.0257
         2       136        70  -2.43846
         2       138        69  -2.43846
         2       149        64   -2.0257
         2       138        71  -2.43846
        22         0 # stress period 15
         2       170        45   -4.8898
         2       138        69  -2.16241
         2       171        44   -4.8898
         2       149        64  -2.13988
         2       174        50  -4.33652
         2       136        70  -2.16241
         2       173        49  -4.33652
         2       149        65  -2.13988
         2       135        70  -2.16241
         2       138        71  -2.16241
         2       174        48  -4.33652
         2       137        70  -2.16241
         2       139        70  -2.16241
         2       134        70  -2.16241
         2       138        72  -2.16241
         2       150        65  -2.13988
         2       138        70  -2.16241
         2       175        49  -4.33652
         2       172        45   -4.8898
         2       174        49  -4.33652
         2       171        46   -4.8898
         2       171        45   -4.8898
        22         0 # stress period 16
         2       138        72  -2.19929
         2       149        65  -4.29664
         2       134        70  -2.19929
         2       172        45  -4.92107
         2       174        50  -4.33669
         2       174        48  -4.33669
         2       171        45  -4.92107
         2       138        71  -2.19929
         2       149        64  -4.29664
         2       173        49  -4.33669
         2       138        70  -2.19929
         2       171        44  -4.92107
         2       170        45  -4.92107
         2       171        46  -4.92107
         2       150        65  -4.29664
         2       174        49  -4.33669
         2       139        70  -2.19929
         2       175        49  -4.33669
         2       137        70  -2.19929
         2       135        70  -2.19929
         2       136        70  -2.19929
         2       138        69  -2.19929
        22         0 # stress period 17
         2       139        70  -2.34188
         2       138        69  -2.34188
         2       171        45   -4.9745
         2       149        65  -5.43863
         2       173        49  -4.29923
         2       137        70  -2.34188
         2       135        70  -2.34188
         2       174        50  -4.29923
         2       170        45   -4.9745
         2       138        71  -2.34188
         2       175        49  -4.29923
         2       171        46   -4.9745
         2       171        44   -4.9745
         2       150        65  -5.43863
         2       174        49  -4.29923
         2       174        48  -4.29923
         2       134        70  -2.34188
         2       172        45   -4.9745
         2       149        64  -5.43863
         2       136        70  -2.34188
         2       138        70  -2.34188
         2       138        72  -2.34188
        22         0 # stress period 18
         2       150        65  -2.29423
         2       135        70  -2.37597
         2       174        48  -4.30578
         2       174        49  -4.30578
         2       138        70  -2.37597
         2       149        65  -2.29423
         2       138        69  -2.37597
         2       136        70  -2.37597
         2       171        46  -5.05742
         2       170        45  -5.05742
         2       175        49  -4.30578
         2       174        50  -4.30578
         2       149        64  -2.29423
         2       171        45  -5.05742
         2       139        70  -2.37597
         2       173        49  -4.30578
         2       137        70  -2.37597
         2       134        70  -2.37597
         2       138        71  -2.37597
         2       171        44  -5.05742
         2       172        45  -5.05742
         2       138        72  -2.37597
        22         0 # stress period 19
         2       138        70   -2.3044
         2       138        71   -2.3044
         2       171        46  -5.06088
         2       138        72   -2.3044
         2       172        45  -5.06088
         2       174        48  -4.25362
         2       174        49  -4.25362
         2       171        44  -5.06088
         2       136        70   -2.3044
         2       150        65  -4.75145
         2       149        65  -4.75145
         2       171        45  -5.06088
         2       139        70   -2.3044
         2       170        45  -5.06088
         2       134        70   -2.3044
         2       137        70   -2.3044
         2       173        49  -4.25362
         2       135        70   -2.3044
         2       149        64  -4.75145
         2       174        50  -4.25362
         2       175        49  -4.25362
         2       138        69   -2.3044
        22         0 # stress period 20
         2       149        64  -5.89439
         2       174        49  -4.24351
         2       136        70  -2.12999
         2       171        45  -5.16772
         2       149        65  -5.89439
         2       138        72  -2.12999
         2       134        70  -2.12999
         2       138        71  -2.12999
         2       175        49  -4.24351
         2       173        49  -4.24351
         2       135        70  -2.12999
         2       150        65  -5.89439
         2       138        69  -2.12999
         2       171        46  -5.16772
         2       174        50  -4.24351
         2       138        70  -2.12999
         2       137        70  -2.12999
         2       170        45  -5.16772
         2       139        70  -2.12999
         2       172        45  -5.16772
         2       171        44  -5.16772
         2       174        48  -4.24351
        22         0 # stress period 21
         2       134        70  -1.82299
         2       174        49  -4.09463
         2       138        69  -1.82299
         2       175        49  -4.09463
         2       171        44   -2.2141
         2       137        70  -1.82299
         2       135        70  -1.82299
         2       174        50  -4.09463
         2       138        71  -1.82299
         2       173        49  -4.09463
         2       149        65  -4.85717
         2       171        45   -2.2141
         2       149        64  -4.85717
         2       138        72  -1.82299
         2       170        45   -2.2141
         2       139        70  -1.82299
         2       172        45   -2.2141
         2       150        65  -4.85717
         2       136        70  -1.82299
         2       174        48  -4.09463
         2       171        46   -2.2141
         2       138        70  -1.82299
        22         0 # stress period 22
         2       136        70  -2.31295
         2       172        45  -3.41387
         2       171        45  -3.41387
         2       138        71  -2.31295
         2       149        65  -3.01463
         2       138        72  -2.31295
         2       134        70  -2.31295
         2       173        49  -4.29849
         2       170        45  -3.41387
         2       139        70  -2.31295
         2       149        64  -3.01463
         2       138        70  -2.31295
         2       150        65  -3.01463
         2       171        44  -3.41387
         2       171        46  -3.41387
         2       138        69  -2.31295
         2       174        48  -4.29849
         2       137        70  -2.31295
         2       175        49  -4.29849
         2       174        49  -4.29849
         2       174        50  -4.29849
         2       135        70  -2.31295
        22         0 # stress period 23
         2       138        71  -2.37547
         2       149        64  -5.70852
         2       173        49  -4.24524
         2       150        65  -5.70852
         2       171        44  -4.04704
         2       139        70  -2.37547
         2       174        48  -4.24524
         2       149        65  -5.70852
         2       134        70  -2.37547
         2       171        46  -4.04704
         2       138        69  -2.37547
         2       137        70  -2.37547
         2       135        70  -2.37547
         2       174        50  -4.24524
         2       138        72  -2.37547
         2       138        70  -2.37547
         2       136        70  -2.37547
         2       171        45  -4.04704
         2       174        49  -4.24524
         2       170        45  -4.04704
         2       172        45  -4.04704
         2       175        49  -4.24524
        22         0 # stress period 24
         2       174        49  -4.33872
         2       172        45  -2.94776
         2       149        64  -2.47759
         2       173        49  -4.33872
         2       136        70   -1.9127
         2       150        65  -2.47759
         2       134        70   -1.9127
         2       174        50  -4.33872
         2       138        69   -1.9127
         2       138        70   -1.9127
         2       137        70   -1.9127
         2       170        45  -2.94776
         2       139        70   -1.9127
         2       174        48  -4.33872
         2       171        46  -2.94776
         2       149        65  -2.47759
         2       135        70   -1.9127
         2       175        49  -4.33872
         2       171        44  -2.94776
         2       138        72   -1.9127
         2       171        45  -2.94776
         2       138        71   -1.9127
        22         0 # stress period 25
         2       139        70  -2.35315
         2       171        46  -3.94517
         2       137        70  -2.35315
         2       174        48  -4.16411
         2       174        49  -4.16411
         2       136        70  -2.35315
         2       175        49  -4.16411
         2       138        72  -2.35315
         2       149        64  -5.83643
         2       134        70  -2.35315
         2       171        45  -3.94517
         2       138        71  -2.35315
         2       138        69  -2.35315
         2       174        50  -4.16411
         2       135        70  -2.35315
         2       149        65  -5.83643
         2       173        49  -4.16411
         2       150        65  -5.83643
         2       170        45  -3.94517
         2       138        70  -2.35315
         2       171        44  -3.94517
         2       172        45  -3.94517
        22         0 # stress period 26
         2       135        70  -2.24924
         2       138        69  -2.24924
         2       174        50  -4.17604
         2       175        49  -4.17604
         2       171        44  -3.92739
         2       138        71  -2.24924
         2       171        45  -3.92739
         2       137        70  -2.24924
         2       138        70  -2.24924
         2       174        48  -4.17604
         2       174        49  -4.17604
         2       139        70  -2.24924
         2       150        65  -5.76166
         2       134        70  -2.24924
         2       171        46  -3.92739
         2       173        49  -4.17604
         2       136        70  -2.24924
         2       172        45  -3.92739
         2       149        64  -5.76166
         2       138        72  -2.24924
         2       149        65  -5.76166
         2       170        45  -3.92739
        22         0 # stress period 27
         2       150        65  -5.92925
         2       138        70  -2.31413
         2       175        49  -4.23681
         2       137        70  -2.31413
         2       135        70  -2.31413
         2       149        65  -5.92925
         2       136        70  -2.31413
         2       174        48  -4.23681
         2       172        45  -1.11856
         2       171        44  -1.11856
         2       134        70  -2.31413
         2       139        70  -2.31413
         2       173        49  -4.23681
         2       170        45  -1.11856
         2       138        72  -2.31413
         2       149        64  -5.92925
         2       174        49  -4.23681
         2       138        71  -2.31413
         2       138        69  -2.31413
         2       174        50  -4.23681
         2       171        46  -1.11856
         2       171        45  -1.11856
        22         0 # stress period 28
         2       174        48  -4.26119
         2       137        70  -2.25543
         2       171        44  -1.82028
         2       171        46  -1.82028
         2       174        50  -4.26119
         2       170        45  -1.82028
         2       138        70  -2.25543
         2       150        65  -5.65857
         2       138        69  -2.25543
         2       139        70  -2.25543
         2       173        49  -4.26119
         2       138        72  -2.25543
         2       149        64  -5.65857
         2       134        70  -2.25543
         2       174        49  -4.26119
         2       135        70  -2.25543
         2       171        45  -1.82028
         2       149        65  -5.65857
         2       136        70  -2.25543
         2       175        49  -4.26119
         2       138        71  -2.25543
         2       172        45  -1.82028
        22         0 # stress period 29
         2       174        48  -4.13695
         2       171        45  -3.09455
         2       174        50  -4.13695
         2       138        71  -1.74945
         2       138        69  -1.74945
         2       171        46  -3.09455
         2       149        64  -4.32845
         2       174        49  -4.13695
         2       170        45  -3.09455
         2       173        49  -4.13695
         2       139        70  -1.74945
         2       171        44  -3.09455
         2       172        45  -3.09455
         2       135        70  -1.74945
         2       137        70  -1.74945
         2       150        65  -4.32845
         2       138        70  -1.74945
         2       134        70  -1.74945
         2       175        49  -4.13695
         2       149        65  -4.32845
         2       136        70  -1.74945
         2       138        72  -1.74945
        22         0 # stress period 30
         2       138        69  -1.61244
         2       136        70  -1.61244
         2       170        45  -2.87516
         2       174        49 -0.972947
         2       171        44  -2.87516
         2       134        70  -1.61244
         2       139        70  -1.61244
         2       172        45  -2.87516
         2       173        49 -0.972947
         2       150        65  -1.26592
         2       149        65  -1.26592
         2       138        72  -1.61244
         2       175        49 -0.972947
         2       171        46  -2.87516
         2       138        71  -1.61244
         2       137        70  -1.61244
         2       171        45  -2.87516
         2       174        50 -0.972947
         2       174        48 -0.972947
         2       135        70  -1.61244
         2       149        64  -1.26592
         2       138        70  -1.61244
        19         0 # stress period 31
         2       174        48  -4.33331
         2       135        70  -1.83424
         2       171        44  -0.63651
         2       170        45  -0.63651
         2       171        46  -0.63651
         2       136        70  -1.83424
         2       171        45  -0.63651
         2       173        49  -4.33331
         2       175        49  -4.33331
         2       134        70  -1.83424
         2       138        72  -1.83424
         2       139        70  -1.83424
         2       138        70  -1.83424
         2       174        49  -4.33331
         2       137        70  -1.83424
         2       174        50  -4.33331
         2       138        71  -1.83424
         2       138        69  -1.83424
         2       172        45  -0.63651
        19         0 # stress period 32
         2       175        49  -4.32156
         2       174        49  -4.32156
         2       138        69  -3.36402
         2       170        45  -2.71002
         2       139        70  -3.36402
         2       174        50  -4.32156
         2       172        45  -2.71002
         2       173        49  -4.32156
         2       138        72  -3.36402
         2       138        70  -3.36402
         2       174        48  -4.32156
         2       171        45  -2.71002
         2       137        70  -3.36402
         2       138        71  -3.36402
         2       135        70  -3.36402
         2       136        70  -3.36402
         2       171        46  -2.71002
         2       134        70  -3.36402
         2       171        44  -2.71002