# WEL package for MODFLOW-NWT generated by Flopy 3.3.5
        20         1 
        20         0 # stress period 1
         2       134        70  -2.41451
         2       136        70  -2.41451
         2       175        49  -4.54508
         2       137        70  -2.41451
         2       138        69  -2.41451
         2       138        70  -2.41451
         2       174        50  -4.54508
         2       138        71  -2.41451
         2       138        72  -2.41451
         2       174        49  -4.54508
         2       147        65   -5.8047
         2       174        48  -4.54508
         2       148        65   -5.8047
         2       149        64  -2.14888
         2       173        49  -4.54508
         2       149        65  -2.14888
         2       150        65  -2.14888
         2       147        64   -5.8047
         2       135        70  -2.41451
         2       139        70  -2.41451
        20         0 # stress period 2
         2       138        69  -2.51307
         2       138        72  -2.51307
         2       174        49  -4.64849
         2       147        65  -5.93544
         2       174        50  -4.64849
         2       138        70  -2.51307
         2       139        70  -2.51307
         2       136        70  -2.51307
         2       138        71  -2.51307
         2       149        64  -3.00933
         2       150        65  -3.00933
         2       135        70  -2.51307
         2       137        70  -2.51307
         2       175        49  -4.64849
         2       149        65  -3.00933
         2       147        64  -5.93544
         2       148        65  -5.93544
         2       174        48  -4.64849
         2       173        49  -4.64849
         2       134        70  -2.51307
        20         0 # stress period 3
         2       138        72  -2.52692
         2       139        70  -2.52692
         2       149        65  -3.86978
         2       147        64 -0.599586
         2       135        70  -2.52692
         2       173        49  -4.94897
         2       150        65  -3.86978
         2       175        49  -4.94897
         2       174        49  -4.94897
         2       147        65 -0.599586
         2       137        70  -2.52692
         2       149        64  -3.86978
         2       174        50  -4.94897
         2       138        70  -2.52692
         2       138        69  -2.52692
         2       136        70  -2.52692
         2       174        48  -4.94897
         2       138        71  -2.52692
         2       134        70  -2.52692
         2       148        65 -0.599586
        20         0 # stress period 4
         2       139        70  -2.40615
         2       135        70  -2.40615
         2       138        69  -2.40615
         2       174        48  -5.08823
         2       148        65 -0.150644
         2       137        70  -2.40615
         2       149        65  -4.72862
         2       173        49  -5.08823
         2       175        49  -5.08823
         2       147        64 -0.150644
         2       138        71  -2.40615
         2       150        65  -4.72862
         2       174        50  -5.08823
         2       134        70  -2.40615
         2       149        64  -4.72862
         2       136        70  -2.40615
         2       138        70  -2.40615
         2       138        72  -2.40615
         2       147        65 -0.150644
         2       174        49  -5.08823
        20         0 # stress period 5
         2       149        64  -4.08271
         2       147        64  -1.12701
         2       175        49  -5.29964
         2       147        65  -1.12701
         2       173        49  -5.29964
         2       174        48  -5.29964
         2       136        70  -2.06413
         2       135        70  -2.06413
         2       138        72  -2.06413
         2       134        70  -2.06413
         2       138        71  -2.06413
         2       174        49  -5.29964
         2       139        70  -2.06413
         2       150        65  -4.08271
         2       138        70  -2.06413
         2       174        50  -5.29964
         2       149        65  -4.08271
         2       148        65  -1.12701
         2       138        69  -2.06413
         2       137        70  -2.06413
        20         0 # stress period 6
         2       138        69  -2.29486
         2       174        50  -4.87573
         2       136        70  -2.29486
         2       138        70  -2.29486
         2       138        71  -2.29486
         2       138        72  -2.29486
         2       149        64  -3.24843
         2       147        64  -1.44058
         2       134        70  -2.29486
         2       137        70  -2.29486
         2       175        49  -4.87573
         2       139        70  -2.29486
         2       135        70  -2.29486
         2       173        49  -4.87573
         2       150        65  -3.24843
         2       149        65  -3.24843
         2       174        48  -4.87573
         2       148        65  -1.44058
         2       147        65  -1.44058
         2       174        49  -4.87573
        17         0 # stress period 7
         2       147        64   -5.9512
         2       139        70  -2.40523
         2       174        50  -5.55904
         2       138        69  -2.40523
         2       174        49  -5.55904
         2       147        65   -5.9512
         2       138        71  -2.40523
         2       175        49  -5.55904
         2       136        70  -2.40523
         2       138        70  -2.40523
         2       174        48  -5.55904
         2       138        72  -2.40523
         2       137        70  -2.40523
         2       173        49  -5.55904
         2       134        70  -2.40523
         2       148        65   -5.9512
         2       135        70  -2.40523
        17         0 # stress period 8
         2       138        70  -2.24171
         2       147        65  -5.73564
         2       174        48  -6.77804
         2       173        49  -6.77804
         2       175        49  -6.77804
         2       147        64  -5.73564
         2       174        50  -6.77804
         2       135        70  -2.24171
         2       138        69  -2.24171
         2       174        49  -6.77804
         2       138        72  -2.24171
         2       138        71  -2.24171
         2       139        70  -2.24171
         2       148        65  -5.73564
         2       137        70  -2.24171
         2       136        70  -2.24171
         2       134        70  -2.24171
        20         0 # stress period 9
         2       173        49  -6.93999
         2       174        50  -6.93999
         2       134        70  -2.21084
         2       135        70  -2.21084
         2       139        70  -2.21084
         2       175        49  -6.93999
         2       138        69  -2.21084
         2       147        64  -4.93885
         2       174        48  -6.93999
         2       136        70  -2.21084
         2       138        70  -2.21084
         2       147        65  -4.93885
         2       148        65  -4.93885
         2       149        64-0.00575034
         2       150        65-0.00575034
         2       137        70  -2.21084
         2       174        49  -6.93999
         2       149        65-0.00575034
         2       138        72  -2.21084
         2       138        71  -2.21084
        20         0 # stress period 10
         2       138        70  -2.38262
         2       147        64  -5.62483
         2       137        70  -2.38262
         2       150        65 -0.104295
         2       175        49  -4.98745
         2       138        71  -2.38262
         2       136        70  -2.38262
         2       138        72  -2.38262
         2       149        65 -0.104295
         2       174        49  -4.98745
         2       139        70  -2.38262
         2       134        70  -2.38262
         2       135        70  -2.38262
         2       173        49  -4.98745
         2       147        65  -5.62483
         2       174        48  -4.98745
         2       174        50  -4.98745
         2       138        69  -2.38262
         2       149        64 -0.104295
         2       148        65  -5.62483
        20         0 # stress period 11
         2       137        70  -2.41467
         2       174        50  -5.76369
         2       139        70  -2.41467
         2       138        69  -2.41467
         2       147        65  -5.93931
         2       148        65  -5.93931
         2       149        65 -0.244518
         2       134        70  -2.41467
         2       138        72  -2.41467
         2       174        49  -5.76369
         2       149        64 -0.244518
         2       150        65 -0.244518
         2       138        71  -2.41467
         2       174        48  -5.76369
         2       135        70  -2.41467
         2       138        70  -2.41467
         2       147        64  -5.93931
         2       173        49  -5.76369
         2       136        70  -2.41467
         2       175        49  -5.76369
        20         0 # stress period 12
         2       136        70   -2.2946
         2       147        64  -4.44806
         2       149        65  -1.82876
         2       175        49  -6.53411
         2       173        49  -6.53411
         2       138        70   -2.2946
         2       174        48  -6.53411
         2       149        64  -1.82876
         2       174        49  -6.53411
         2       138        71   -2.2946
         2       134        70   -2.2946
         2       147        65  -4.44806
         2       139        70   -2.2946
         2       148        65  -4.44806
         2       150        65  -1.82876
         2       138        69   -2.2946
         2       135        70   -2.2946
         2       174        50  -6.53411
         2       137        70   -2.2946
         2       138        72   -2.2946
        20         0 # stress period 13
         2       138        70   -2.2186
         2       150        65  -5.25813
         2       138        71   -2.2186
         2       138        69   -2.2186
         2       138        72   -2.2186
         2       174        50  -7.38201
         2       147        65 -0.146453
         2       147        64 -0.146453
         2       134        70   -2.2186
         2       135        70   -2.2186
         2       139        70   -2.2186
         2       149        64  -5.25813
         2       173        49  -7.38201
         2       137        70   -2.2186
         2       175        49  -7.38201
         2       149        65  -5.25813
         2       174        48  -7.38201
         2       136        70   -2.2186
         2       174        49  -7.38201
         2       148        65 -0.146453
        20         0 # stress period 14
         2       175        49  -8.14581
         2       147        64 -0.106286
         2       138        70  -2.30796
         2       173        49  -8.14581
         2       139        70  -2.30796
         2       135        70  -2.30796
         2       134        70  -2.30796
         2       174        48  -8.14581
         2       137        70  -2.30796
         2       138        72  -2.30796
         2       174        49  -8.14581
         2       150        65  -5.29591
         2       174        50  -8.14581
         2       149        65  -5.29591
         2       136        70  -2.30796
         2       138        69  -2.30796
         2       149        64  -5.29591
         2       138        71  -2.30796
         2       148        65 -0.106286
         2       147        65 -0.106286
        20         0 # stress period 15
         2       138        69   -2.3552
         2       147        65 -0.010728
         2       149        64  -5.30484
         2       174        50  -7.92964
         2       136        70   -2.3552
         2       173        49  -7.92964
         2       149        65  -5.30484
         2       135        70   -2.3552
         2       138        71   -2.3552
         2       174        48  -7.92964
         2       148        65 -0.010728
         2       137        70   -2.3552
         2       139        70   -2.3552
         2       134        70   -2.3552
         2       138        72   -2.3552
         2       150        65  -5.30484
         2       138        70   -2.3552
         2       175        49  -7.92964
         2       147        64 -0.010728
         2       174        49  -7.92964
        17         0 # stress period 16
         2       138        72  -2.38561
         2       149        65  -5.54826
         2       134        70  -2.38561
         2       174        50   -6.3646
         2       174        48   -6.3646
         2       138        71  -2.38561
         2       149        64  -5.54826
         2       173        49   -6.3646
         2       138        70  -2.38561
         2       150        65  -5.54826
         2       174        49   -6.3646
         2       139        70  -2.38561
         2       175        49   -6.3646
         2       137        70  -2.38561
         2       135        70  -2.38561
         2       136        70  -2.38561
         2       138        69  -2.38561
        17         0 # stress period 17
         2       139        70  -2.39584
         2       138        69  -2.39584
         2       149        65   -5.5646
         2       173        49  -4.30626
         2       137        70  -2.39584
         2       135        70  -2.39584
         2       174        50  -4.30626
         2       138        71  -2.39584
         2       175        49  -4.30626
         2       150        65   -5.5646
         2       174        49  -4.30626
         2       174        48  -4.30626
         2       134        70  -2.39584
         2       149        64   -5.5646
         2       136        70  -2.39584
         2       138        70  -2.39584
         2       138        72  -2.39584
        20         0 # stress period 18
         2       150        65  -5.49296
         2       135        70  -2.34478
         2       174        48  -4.27226
         2       174        49  -4.27226
         2       138        70  -2.34478
         2       149        65  -5.49296
         2       138        69  -2.34478
         2       136        70  -2.34478
         2       148        65-0.0010531
         2       175        49  -4.27226
         2       147        65-0.0010531
         2       174        50  -4.27226
         2       149        64  -5.49296
         2       139        70  -2.34478
         2       173        49  -4.27226
         2       147        64-0.0010531
         2       137        70  -2.34478
         2       134        70  -2.34478
         2       138        71  -2.34478
         2       138        72  -2.34478
        20         0 # stress period 19
         2       138        70  -2.40197
         2       138        71  -2.40197
         2       138        72  -2.40197
         2       147        64 -0.134307
         2       147        65 -0.134307
         2       174        48  -5.32572
         2       174        49  -5.32572
         2       136        70  -2.40197
         2       150        65  -5.60576
         2       149        65  -5.60576
         2       139        70  -2.40197
         2       134        70  -2.40197
         2       137        70  -2.40197
         2       173        49  -5.32572
         2       135        70  -2.40197
         2       149        64  -5.60576
         2       174        50  -5.32572
         2       175        49  -5.32572
         2       148        65 -0.134307
         2       138        69  -2.40197
        20         0 # stress period 20
         2       149        64  -5.18528
         2       174        49  -7.73115
         2       136        70  -2.27585
         2       149        65  -5.18528
         2       138        72  -2.27585
         2       134        70  -2.27585
         2       138        71  -2.27585
         2       175        49  -7.73115
         2       173        49  -7.73115
         2       135        70  -2.27585
         2       147        65 -0.177666
         2       150        65  -5.18528
         2       138        69  -2.27585
         2       148        65 -0.177666
         2       174        50  -7.73115
         2       138        70  -2.27585
         2       137        70  -2.27585
         2       139        70  -2.27585
         2       174        48  -7.73115
         2       147        64 -0.177666
        20         0 # stress period 21
         2       134        70  -2.20254
         2       174        49  -7.09865
         2       138        69  -2.20254
         2       175        49  -7.09865
         2       137        70  -2.20254
         2       135        70  -2.20254
         2       174        50  -7.09865
         2       138        71  -2.20254
         2       147        64 -0.176463
         2       173        49  -7.09865
         2       149        65  -4.77253
         2       149        64  -4.77253
         2       138        72  -2.20254
         2       139        70  -2.20254
         2       148        65 -0.176463
         2       150        65  -4.77253
         2       136        70  -2.20254
         2       147        65 -0.176463
         2       174        48  -7.09865
         2       138        70  -2.20254
        20         0 # stress period 22
         2       148        65 -0.116868
         2       147        64 -0.116868
         2       136        70  -2.27736
         2       138        71  -2.27736
         2       149        65   -3.6153
         2       138        72  -2.27736
         2       134        70  -2.27736
         2       173        49  -7.07482
         2       139        70  -2.27736
         2       149        64   -3.6153
         2       147        65 -0.116868
         2       138        70  -2.27736
         2       150        65   -3.6153
         2       138        69  -2.27736
         2       174        48  -7.07482
         2       137        70  -2.27736
         2       175        49  -7.07482
         2       174        49  -7.07482
         2       174        50  -7.07482
         2       135        70  -2.27736
        20         0 # stress period 23
         2       138        71  -2.30464
         2       149        64  -5.27187
         2       173        49  -6.04808
         2       147        64  -2.71217
         2       150        65  -5.27187
         2       139        70  -2.30464
         2       174        48  -6.04808
         2       149        65  -5.27187
         2       147        65  -2.71217
         2       134        70  -2.30464
         2       138        69  -2.30464
         2       137        70  -2.30464
         2       135        70  -2.30464
         2       174        50  -6.04808
         2       138        72  -2.30464
         2       148        65  -2.71217
         2       138        70  -2.30464
         2       136        70  -2.30464
         2       174        49  -6.04808
         2       175        49  -6.04808
        20         0 # stress period 24
         2       174        49  -4.41116
         2       148        65  -5.63596
         2       149        64  -5.40719
         2       173        49  -4.41116
         2       136        70  -2.37371
         2       150        65  -5.40719
         2       134        70  -2.37371
         2       174        50  -4.41116
         2       138        69  -2.37371
         2       138        70  -2.37371
         2       137        70  -2.37371
         2       139        70  -2.37371
         2       174        48  -4.41116
         2       147        65  -5.63596
         2       149        65  -5.40719
         2       135        70  -2.37371
         2       175        49  -4.41116
         2       147        64  -5.63596
         2       138        72  -2.37371
         2       138        71  -2.37371
        20         0 # stress period 25
         2       139        70  -2.68613
         2       147        64   -4.0246
         2       137        70  -2.68613
         2       174        48   -4.5607
         2       174        49   -4.5607
         2       147        65   -4.0246
         2       136        70  -2.68613
         2       175        49   -4.5607
         2       138        72  -2.68613
         2       148        65   -4.0246
         2       149        64  -5.35068
         2       134        70  -2.68613
         2       138        71  -2.68613
         2       138        69  -2.68613
         2       174        50   -4.5607
         2       135        70  -2.68613
         2       149        65  -5.35068
         2       173        49   -4.5607
         2       150        65  -5.35068
         2       138        70  -2.68613
        20         0 # stress period 26
         2       135        70  -2.81612
         2       138        69  -2.81612
         2       174        50  -5.21765
         2       175        49  -5.21765
         2       148        65    -2.017
         2       147        65    -2.017
         2       138        71  -2.81612
         2       137        70  -2.81612
         2       138        70  -2.81612
         2       174        48  -5.21765
         2       147        64    -2.017
         2       174        49  -5.21765
         2       139        70  -2.81612
         2       150        65  -4.48062
         2       134        70  -2.81612
         2       173        49  -5.21765
         2       136        70  -2.81612
         2       149        64  -4.48062
         2       138        72  -2.81612
         2       149        65  -4.48062
        20         0 # stress period 27
         2       150        65  -4.62648
         2       138        70  -2.04164
         2       175        49  -5.98685
         2       137        70  -2.04164
         2       135        70  -2.04164
         2       149        65  -4.62648
         2       136        70  -2.04164
         2       174        48  -5.98685
         2       148        65  -4.83105
         2       147        64  -4.83105
         2       134        70  -2.04164
         2       139        70  -2.04164
         2       173        49  -5.98685
         2       138        72  -2.04164
         2       149        64  -4.62648
         2       174        49  -5.98685
         2       147        65  -4.83105
         2       138        71  -2.04164
         2       138        69  -2.04164
         2       174        50  -5.98685
        20         0 # stress period 28
         2       174        48  -4.26235
         2       137        70  -3.11493
         2       174        50  -4.26235
         2       138        70  -3.11493
         2       150        65  -5.11897
         2       138        69  -3.11493
         2       147        64  -2.90175
         2       139        70  -3.11493
         2       147        65  -2.90175
         2       173        49  -4.26235
         2       138        72  -3.11493
         2       149        64  -5.11897
         2       134        70  -3.11493
         2       174        49  -4.26235
         2       135        70  -3.11493
         2       149        65  -5.11897
         2       136        70  -3.11493
         2       175        49  -4.26235
         2       138        71  -3.11493
         2       148        65  -2.90175
        20         0 # stress period 29
         2       147        65  -3.71653
         2       174        48  -4.31333
         2       174        50  -4.31333
         2       138        71   -3.4066
         2       138        69   -3.4066
         2       149        64  -5.06068
         2       174        49  -4.31333
         2       173        49  -4.31333
         2       139        70   -3.4066
         2       147        64  -3.71653
         2       135        70   -3.4066
         2       148        65  -3.71653
         2       137        70   -3.4066
         2       150        65  -5.06068
         2       138        70   -3.4066
         2       134        70   -3.4066
         2       175        49  -4.31333
         2       149        65  -5.06068
         2       136        70   -3.4066
         2       138        72   -3.4066
        20         0 # stress period 30
         2       138        69  -3.53372
         2       147        65 -0.453256
         2       136        70  -3.53372
         2       174        49  -4.39105
         2       134        70  -3.53372
         2       139        70  -3.53372
         2       147        64 -0.453256
         2       173        49  -4.39105
         2       150        65  -5.42288
         2       149        65  -5.42288
         2       148        65 -0.453256
         2       138        72  -3.53372
         2       175        49  -4.39105
         2       138        71  -3.53372
         2       137        70  -3.53372
         2       174        50  -4.39105
         2       174        48  -4.39105
         2       135        70  -3.53372
         2       149        64  -5.42288
         2       138        70  -3.53372
        20         0 # stress period 31
         2       174        48  -4.45438
         2       135        70   -3.5407
         2       147        65  -1.22002
         2       148        65  -1.22002
         2       147        64  -1.22002
         2       136        70   -3.5407
         2       149        64  -5.48252
         2       149        65  -5.48252
         2       150        65  -5.48252
         2       173        49  -4.45438
         2       175        49  -4.45438
         2       134        70   -3.5407
         2       138        72   -3.5407
         2       139        70   -3.5407
         2       138        70   -3.5407
         2       174        49  -4.45438
         2       137        70   -3.5407
         2       174        50  -4.45438
         2       138        71   -3.5407
         2       138        69   -3.5407
        20         0 # stress period 32
         2       147        64  -1.98678
         2       175        49  -4.46727
         2       174        49  -4.46727
         2       138        69  -3.52091
         2       139        70  -3.52091
         2       174        50  -4.46727
         2       149        64   -5.4646
         2       173        49  -4.46727
         2       138        72  -3.52091
         2       150        65   -5.4646
         2       138        70  -3.52091
         2       174        48  -4.46727
         2       137        70  -3.52091
         2       138        71  -3.52091
         2       135        70  -3.52091
         2       136        70  -3.52091
         2       149        65   -5.4646
         2       147        65  -1.98678
         2       134        70  -3.52091
         2       148        65  -1.98678
        20         0 # stress period 33
         2       138        72  -3.50908
         2       174        50  -4.49775
         2       174        48  -4.49775
         2       175        49  -4.49775
         2       138        70  -3.50908
         2       148        65  -2.20495
         2       150        65  -5.44006
         2       174        49  -4.49775
         2       149        64  -5.44006
         2       147        64  -2.20495
         2       137        70  -3.50908
         2       139        70  -3.50908
         2       138        69  -3.50908
         2       134        70  -3.50908
         2       147        65  -2.20495
         2       135        70  -3.50908
         2       149        65  -5.44006
         2       136        70  -3.50908
         2       173        49  -4.49775
         2       138        71  -3.50908
        20         0 # stress period 34
         2       149        64  -5.45327
         2       149        65  -5.45327
         2       150        65  -5.45327
         2       147        65  -2.64743
         2       147        64  -2.64743
         2       138        71  -3.30338
         2       136        70  -3.30338
         2       137        70  -3.30338
         2       138        70  -3.30338
         2       134        70  -3.30338
         2       138        72  -3.30338
         2       174        48  -4.55071
         2       135        70  -3.30338
         2       148        65  -2.64743
         2       139        70  -3.30338
         2       138        69  -3.30338
         2       173        49  -4.55071
         2       174        50  -4.55071
         2       174        49  -4.55071
         2       175        49  -4.55071
        20         0 # stress period 35
         2       137        70  -2.81064
         2       138        72  -2.81064
         2       138        70  -2.81064
         2       173        49  -6.17272
         2       134        70  -2.81064
         2       174        49  -6.17272
         2       174        50  -6.17272
         2       138        71  -2.81064
         2       174        48  -6.17272
         2       148        65  -2.17124
         2       135        70  -2.81064
         2       150        65  -5.32206
         2       139        70  -2.81064
         2       147        64  -2.17124
         2       149        65  -5.32206
         2       175        49  -6.17272
         2       147        65  -2.17124
         2       138        69  -2.81064
         2       136        70  -2.81064
         2       149        64  -5.32206
        20         0 # stress period 36
         2       148        65  -3.06479
         2       136        70  -3.43909
         2       138        69  -3.43909
         2       147        65  -3.06479
         2       175        49  -5.68072
         2       137        70  -3.43909