# WEL package for MODFLOW-NWT generated by Flopy 3.3.5
        25         1 
        25         0 # stress period 1
         2       134        70   -2.3741
         2       136        70   -2.3741
         2       175        49   -2.3445
         2       137        70   -2.3741
         2       138        69   -2.3741
         2       138        70   -2.3741
         2       174        50   -2.3445
         2       138        71   -2.3741
         2       138        72   -2.3741
         2       172        45  -4.25703
         2       174        49   -2.3445
         2       171        44  -4.25703
         2       147        65 -0.057329
         2       171        46  -4.25703
         2       174        48   -2.3445
         2       148        65 -0.057329
         2       149        64  -3.38173
         2       173        49   -2.3445
         2       149        65  -3.38173
         2       171        45  -4.25703
         2       150        65  -3.38173
         2       170        45  -4.25703
         2       147        64 -0.057329
         2       135        70   -2.3741
         2       139        70   -2.3741
        25         0 # stress period 2
         2       171        44  -4.47489
         2       138        69  -2.42844
         2       138        72  -2.42844
         2       174        49 -0.743551
         2       147        65-0.0888703
         2       174        50 -0.743551
         2       138        70  -2.42844
         2       139        70  -2.42844
         2       171        45  -4.47489
         2       136        70  -2.42844
         2       172        45  -4.47489
         2       170        45  -4.47489
         2       138        71  -2.42844
         2       149        64  -3.76179
         2       171        46  -4.47489
         2       150        65  -3.76179
         2       135        70  -2.42844
         2       137        70  -2.42844
         2       175        49 -0.743551
         2       149        65  -3.76179
         2       147        64-0.0888703
         2       148        65-0.0888703
         2       174        48 -0.743551
         2       173        49 -0.743551
         2       134        70  -2.42844
        25         0 # stress period 3
         2       138        72  -2.43797
         2       139        70  -2.43797
         2       149        65  -4.14184
         2       147        64 -0.120412
         2       135        70  -2.43797
         2       171        46   -4.4643
         2       172        45   -4.4643
         2       173        49  -1.52732
         2       150        65  -4.14184
         2       175        49  -1.52732
         2       174        49  -1.52732
         2       171        45   -4.4643
         2       147        65 -0.120412
         2       137        70  -2.43797
         2       149        64  -4.14184
         2       174        50  -1.52732
         2       138        70  -2.43797
         2       138        69  -2.43797
         2       136        70  -2.43797
         2       174        48  -1.52732
         2       170        45   -4.4643
         2       171        44   -4.4643
         2       138        71  -2.43797
         2       134        70  -2.43797
         2       148        65 -0.120412
        25         0 # stress period 4
         2       139        70  -2.42187
         2       171        44  -4.35317
         2       135        70  -2.42187
         2       138        69  -2.42187
         2       174        48  -2.31108
         2       148        65 -0.151953
         2       137        70  -2.42187
         2       149        65   -4.5219
         2       173        49  -2.31108
         2       175        49  -2.31108
         2       147        64 -0.151953
         2       138        71  -2.42187
         2       171        46  -4.35317
         2       172        45  -4.35317
         2       150        65   -4.5219
         2       174        50  -2.31108
         2       134        70  -2.42187
         2       149        64   -4.5219
         2       136        70  -2.42187
         2       170        45  -4.35317
         2       138        70  -2.42187
         2       171        45  -4.35317
         2       138        72  -2.42187
         2       147        65 -0.151953
         2       174        49  -2.31108
        25         0 # stress period 5
         2       149        64  -4.95371
         2       147        64 -0.183494
         2       175        49  -3.09485
         2       147        65 -0.183494
         2       173        49  -3.09485
         2       174        48  -3.09485
         2       171        46    -4.373
         2       136        70  -2.41593
         2       135        70  -2.41593
         2       172        45    -4.373
         2       138        72  -2.41593
         2       134        70  -2.41593
         2       171        45    -4.373
         2       138        71  -2.41593
         2       174        49  -3.09485
         2       170        45    -4.373
         2       139        70  -2.41593
         2       150        65  -4.95371
         2       138        70  -2.41593
         2       174        50  -3.09485
         2       149        65  -4.95371
         2       148        65 -0.183494
         2       171        44    -4.373
         2       138        69  -2.41593
         2       137        70  -2.41593
        25         0 # stress period 6
         2       170        45  -4.23173
         2       138        69  -2.41874
         2       174        50  -3.09618
         2       136        70  -2.41874
         2       138        70  -2.41874
         2       171        44  -4.23173
         2       138        71  -2.41874
         2       138        72  -2.41874
         2       172        45  -4.23173
         2       149        64  -3.08037
         2       171        45  -4.23173
         2       147        64 -0.215035
         2       171        46  -4.23173
         2       134        70  -2.41874
         2       137        70  -2.41874
         2       175        49  -3.09618
         2       139        70  -2.41874
         2       135        70  -2.41874
         2       173        49  -3.09618
         2       150        65  -3.08037
         2       149        65  -3.08037
         2       174        48  -3.09618
         2       148        65 -0.215035
         2       147        65 -0.215035
         2       174        49  -3.09618
        25         0 # stress period 7
         2       147        64  -1.76312
         2       171        46  -4.17865
         2       139        70  -2.40239
         2       174        50  -2.41367
         2       138        69  -2.40239
         2       172        45  -4.17865
         2       174        49  -2.41367
         2       147        65  -1.76312
         2       138        71  -2.40239
         2       175        49  -2.41367
         2       136        70  -2.40239
         2       138        70  -2.40239
         2       174        48  -2.41367
         2       138        72  -2.40239
         2       137        70  -2.40239
         2       149        65-0.0070456
         2       173        49  -2.41367
         2       134        70  -2.40239
         2       171        45  -4.17865
         2       148        65  -1.76312
         2       135        70  -2.40239
         2       150        65-0.0070456
         2       149        64-0.0070456
         2       171        44  -4.17865
         2       170        45  -4.17865
        25         0 # stress period 8
         2       138        70  -2.30489
         2       171        46  -4.02158
         2       147        65  -3.63194
         2       174        48  -4.12997
         2       173        49  -4.12997
         2       175        49  -4.12997
         2       171        44  -4.02158
         2       147        64  -3.63194
         2       171        45  -4.02158
         2       174        50  -4.12997
         2       135        70  -2.30489
         2       138        69  -2.30489
         2       149        64 -0.299282
         2       149        65 -0.299282
         2       174        49  -4.12997
         2       170        45  -4.02158
         2       150        65 -0.299282
         2       172        45  -4.02158
         2       138        72  -2.30489
         2       138        71  -2.30489
         2       139        70  -2.30489
         2       148        65  -3.63194
         2       137        70  -2.30489
         2       136        70  -2.30489
         2       134        70  -2.30489
        25         0 # stress period 9
         2       173        49  -4.14267
         2       174        50  -4.14267
         2       134        70  -2.40691
         2       135        70  -2.40691
         2       170        45  -4.15253
         2       139        70  -2.40691
         2       175        49  -4.14267
         2       138        69  -2.40691
         2       171        45  -4.15253
         2       147        64-0.0640054
         2       172        45  -4.15253
         2       174        48  -4.14267
         2       136        70  -2.40691
         2       138        70  -2.40691
         2       147        65-0.0640054
         2       148        65-0.0640054
         2       171        44  -4.15253
         2       149        64 -0.740732
         2       150        65 -0.740732
         2       137        70  -2.40691
         2       174        49  -4.14267
         2       171        46  -4.15253
         2       149        65 -0.740732
         2       138        72  -2.40691
         2       138        71  -2.40691
        25         0 # stress period 10
         2       138        70  -2.42973
         2       147        64 -0.103879
         2       137        70  -2.42973
         2       150        65  -1.18218
         2       175        49  -4.08609
         2       138        71  -2.42973
         2       136        70  -2.42973
         2       138        72  -2.42973
         2       149        65  -1.18218
         2       174        49  -4.08609
         2       171        45  -4.04174
         2       139        70  -2.42973
         2       134        70  -2.42973
         2       135        70  -2.42973
         2       172        45  -4.04174
         2       173        49  -4.08609
         2       147        65 -0.103879
         2       174        48  -4.08609
         2       174        50  -4.08609
         2       171        46  -4.04174
         2       171        44  -4.04174
         2       138        69  -2.42973
         2       149        64  -1.18218
         2       148        65 -0.103879
         2       170        45  -4.04174
        25         0 # stress period 11
         2       137        70  -2.40871
         2       171        44  -4.18546
         2       174        50  -4.02848
         2       139        70  -2.40871
         2       138        69  -2.40871
         2       147        65 -0.232664
         2       148        65 -0.232664
         2       149        65  -1.91589
         2       134        70  -2.40871
         2       138        72  -2.40871
         2       171        46  -4.18546
         2       174        49  -4.02848
         2       149        64  -1.91589
         2       172        45  -4.18546
         2       150        65  -1.91589
         2       138        71  -2.40871
         2       174        48  -4.02848
         2       135        70  -2.40871
         2       138        70  -2.40871
         2       147        64 -0.232664
         2       170        45  -4.18546
         2       173        49  -4.02848
         2       171        45  -4.18546
         2       136        70  -2.40871
         2       175        49  -4.02848
        25         0 # stress period 12
         2       136        70  -2.39199
         2       147        64-0.0781591
         2       149        65  -5.58759
         2       175        49   -4.0021
         2       172        45   -4.1454
         2       173        49   -4.0021
         2       138        70  -2.39199
         2       174        48   -4.0021
         2       149        64  -5.58759
         2       174        49   -4.0021
         2       138        71  -2.39199
         2       134        70  -2.39199
         2       147        65-0.0781591
         2       171        44   -4.1454
         2       139        70  -2.39199
         2       148        65-0.0781591
         2       150        65  -5.58759
         2       138        69  -2.39199
         2       170        45   -4.1454
         2       171        46   -4.1454
         2       135        70  -2.39199
         2       174        50   -4.0021
         2       171        45   -4.1454
         2       137        70  -2.39199
         2       138        72  -2.39199
        25         0 # stress period 13
         2       172        45  -4.11955
         2       138        70  -2.34896
         2       150        65  -4.83606
         2       138        71  -2.34896
         2       138        69  -2.34896
         2       170        45  -4.11955
         2       171        44  -4.11955
         2       138        72  -2.34896
         2       174        50  -3.19682
         2       147        65  -1.02685
         2       147        64  -1.02685
         2       134        70  -2.34896
         2       135        70  -2.34896
         2       139        70  -2.34896
         2       149        64  -4.83606
         2       173        49  -3.19682
         2       171        45  -4.11955
         2       137        70  -2.34896
         2       175        49  -3.19682
         2       149        65  -4.83606
         2       174        48  -3.19682
         2       136        70  -2.34896
         2       174        49  -3.19682
         2       148        65  -1.02685
         2       171        46  -4.11955
        25         0 # stress period 14
         2       175        49  -3.04844
         2       147        64  -5.83617
         2       138        70  -2.37462
         2       171        44  -4.11291
         2       173        49  -3.04844
         2       139        70  -2.37462
         2       135        70  -2.37462
         2       170        45  -4.11291
         2       171        46  -4.11291
         2       171        45  -4.11291
         2       134        70  -2.37462
         2       174        48  -3.04844
         2       137        70  -2.37462
         2       172        45  -4.11291
         2       138        72  -2.37462
         2       174        49  -3.04844
         2       150        65  -1.57091
         2       174        50  -3.04844
         2       149        65  -1.57091
         2       136        70  -2.37462
         2       138        69  -2.37462
         2       149        64  -1.57091
         2       138        71  -2.37462
         2       148        65  -5.83617
         2       147        65  -5.83617
        25         0 # stress period 15
         2       170        45  -4.05273
         2       138        69  -2.28543
         2       147        65  -5.44815
         2       171        44  -4.05273
         2       149        64  -3.08966
         2       174        50  -3.92907
         2       136        70  -2.28543
         2       173        49  -3.92907
         2       149        65  -3.08966
         2       135        70  -2.28543
         2       138        71  -2.28543
         2       174        48  -3.92907
         2       148        65  -5.44815
         2       137        70  -2.28543
         2       139        70  -2.28543
         2       134        70  -2.28543
         2       138        72  -2.28543
         2       150        65  -3.08966
         2       138        70  -2.28543
         2       175        49  -3.92907
         2       147        64  -5.44815
         2       172        45  -4.05273
         2       174        49  -3.92907
         2       171        46  -4.05273
         2       171        45  -4.05273
        25         0 # stress period 16
         2       147        65 -0.324687
         2       138        72  -2.40361
         2       149        65 -0.138139
         2       134        70  -2.40361
         2       172        45  -4.20137
         2       174        50  -2.28889
         2       174        48  -2.28889
         2       171        45  -4.20137
         2       138        71  -2.40361
         2       149        64 -0.138139
         2       148        65 -0.324687
         2       173        49  -2.28889
         2       138        70  -2.40361
         2       171        44  -4.20137
         2       147        64 -0.324687
         2       170        45  -4.20137
         2       171        46  -4.20137
         2       150        65 -0.138139
         2       174        49  -2.28889
         2       139        70  -2.40361
         2       175        49  -2.28889
         2       137        70  -2.40361
         2       135        70  -2.40361
         2       136        70  -2.40361
         2       138        69  -2.40361
        25         0 # stress period 17
         2       139        70  -2.43495
         2       147        64-0.0909437
         2       138        69  -2.43495
         2       171        45  -4.13956
         2       149        65 -0.287966
         2       173        49  -4.04797
         2       137        70  -2.43495
         2       135        70  -2.43495
         2       174        50  -4.04797
         2       170        45  -4.13956
         2       138        71  -2.43495
         2       175        49  -4.04797
         2       171        46  -4.13956
         2       171        44  -4.13956
         2       150        65 -0.287966
         2       174        49  -4.04797
         2       174        48  -4.04797
         2       134        70  -2.43495
         2       147        65-0.0909437
         2       172        45  -4.13956
         2       148        65-0.0909437
         2       149        64 -0.287966
         2       136        70  -2.43495
         2       138        70  -2.43495
         2       138        72  -2.43495
        25         0 # stress period 18
         2       150        65  -2.63017
         2       135        70  -2.36118
         2       174        48  -4.03992
         2       174        49  -4.03992
         2       138        70  -2.36118
         2       149        65  -2.63017
         2       138        69  -2.36118
         2       136        70  -2.36118
         2       171        46  -4.15741
         2       148        65-0.0862398
         2       170        45  -4.15741
         2       175        49  -4.03992
         2       147        65-0.0862398
         2       174        50  -4.03992
         2       149        64  -2.63017
         2       171        45  -4.15741
         2       139        70  -2.36118
         2       173        49  -4.03992
         2       147        64-0.0862398
         2       137        70  -2.36118
         2       134        70  -2.36118
         2       138        71  -2.36118
         2       171        44  -4.15741
         2       172        45  -4.15741
         2       138        72  -2.36118
        25         0 # stress period 19
         2       138        70  -2.31795
         2       138        71  -2.31795
         2       171        46  -4.11921
         2       138        72  -2.31795
         2       172        45  -4.11921
         2       147        64 -0.085629
         2       147        65 -0.085629
         2       174        48  -4.02063
         2       174        49  -4.02063
         2       171        44  -4.11921
         2       136        70  -2.31795
         2       150        65  -5.36322
         2       149        65  -5.36322
         2       171        45  -4.11921
         2       139        70  -2.31795
         2       170        45  -4.11921
         2       134        70  -2.31795
         2       137        70  -2.31795
         2       173        49  -4.02063
         2       135        70  -2.31795
         2       149        64  -5.36322
         2       174        50  -4.02063
         2       175        49  -4.02063
         2       148        65 -0.085629
         2       138        69  -2.31795
        25         0 # stress period 20
         2       149        64  -5.26558
         2       174        49  -3.92963
         2       136        70  -2.29832
         2       171        45  -4.02387
         2       149        65  -5.26558
         2       138        72  -2.29832
         2       134        70  -2.29832
         2       138        71  -2.29832
         2       175        49  -3.92963
         2       173        49  -3.92963
         2       135        70  -2.29832
         2       147        65  -3.46796
         2       150        65  -5.26558
         2       138        69  -2.29832
         2       148        65  -3.46796
         2       171        46  -4.02387
         2       174        50  -3.92963
         2       138        70  -2.29832
         2       137        70  -2.29832
         2       170        45  -4.02387
         2       139        70  -2.29832
         2       172        45  -4.02387
         2       171        44  -4.02387
         2       174        48  -3.92963
         2       147        64  -3.46796
        25         0 # stress period 21
         2       134        70  -2.26909
         2       174        49 -0.654012
         2       138        69  -2.26909
         2       175        49 -0.654012
         2       171        44  -4.23225
         2       137        70  -2.26909
         2       135        70  -2.26909
         2       174        50 -0.654012
         2       138        71  -2.26909
         2       147        64  -5.27323
         2       173        49 -0.654012
         2       149        65  -1.72873
         2       171        45  -4.23225
         2       149        64  -1.72873
         2       138        72  -2.26909
         2       170        45  -4.23225
         2       139        70  -2.26909
         2       172        45  -4.23225
         2       148        65  -5.27323
         2       150        65  -1.72873
         2       136        70  -2.26909
         2       147        65  -5.27323
         2       174        48 -0.654012
         2       171        46  -4.23225
         2       138        70  -2.26909
        25         0 # stress period 22
         2       148        65  -5.55081
         2       147        64  -5.55081
         2       136        70  -1.89836
         2       172        45  -4.17944
         2       171        45  -4.17944
         2       138        71  -1.89836
         2       149        65  -4.25934
         2       138        72  -1.89836
         2       134        70  -1.89836
         2       173        49  -1.68652
         2       170        45  -4.17944
         2       139        70  -1.89836
         2       149        64  -4.25934
         2       147        65  -5.55081
         2       138        70  -1.89836
         2       150        65  -4.25934
         2       171        44  -4.17944
         2       171        46  -4.17944
         2       138        69  -1.89836
         2       174        48  -1.68652
         2       137        70  -1.89836
         2       175        49  -1.68652
         2       174        49  -1.68652
         2       174        50  -1.68652
         2       135        70  -1.89836
        25         0 # stress period 23
         2       138        71  -1.31506
         2       149        64  -2.50188
         2       173        49  -2.21903
         2       147        64  -5.28259
         2       150        65  -2.50188
         2       171        44  -4.17652
         2       139        70  -1.31506
         2       174        48  -2.21903
         2       149        65  -2.50188
         2       147        65  -5.28259
         2       134        70  -1.31506
         2       171        46  -4.17652
         2       138        69  -1.31506
         2       137        70  -1.31506
         2       135        70  -1.31506
         2       174        50  -2.21903
         2       138        72  -1.31506
         2       148        65  -5.28259
         2       138        70  -1.31506
         2       136        70  -1.31506
         2       171        45  -4.17652
         2       174        49  -2.21903
         2       170        45  -4.17652
         2       172        45  -4.17652
         2       175        49  -2.21903
        25         0 # stress period 24
         2       174        49  -0.51599
         2       148        65 -0.265977
         2       172        45  -4.22673
         2       149        64   -2.5028
         2       173        49  -0.51599
         2       136        70  -2.37873
         2       150        65   -2.5028
         2       134        70  -2.37873
         2       174        50  -0.51599
         2       138        69  -2.37873
         2       138        70  -2.37873
         2       137        70  -2.37873
         2       170        45  -4.22673
         2       139        70  -2.37873
         2       174        48  -0.51599
         2       171        46  -4.22673
         2       147        65 -0.265977
         2       149        65   -2.5028
         2       135        70  -2.37873
         2       175        49  -0.51599
         2       147        64 -0.265977
         2       171        44  -4.22673
         2       138        72  -2.37873
         2       171        45  -4.22673
         2       138        71  -2.37873
        25         0 # stress period 25
         2       139        70  -2.23858
         2       147        64 -0.136959
         2       171        46  -4.25779
         2       137        70  -2.23858
         2       174        48  -1.39361
         2       174        49  -1.39361
         2       147        65 -0.136959
         2       136        70  -2.23858
         2       175        49  -1.39361
         2       138        72  -2.23858
         2       148        65 -0.136959
         2       149        64  -5.11889
         2       134        70  -2.23858
         2       171        45  -4.25779
         2       138        71  -2.23858
         2       138        69  -2.23858
         2       174        50  -1.39361
         2       135        70  -2.23858
         2       149        65  -5.11889
         2       173        49  -1.39361
         2       150        65  -5.11889
         2       170        45  -4.25779
         2       138        70  -2.23858
         2       171        44  -4.25779
         2       172        45  -4.25779
        25         0 # stress period 26
         2       135        70  -2.26094
         2       138        69  -2.26094
         2       174        50  -2.27124
         2       175        49  -2.27124
         2       171        44  -4.23392
         2       148        65-0.0861946
         2       147        65-0.0861946
         2       138        71  -2.26094
         2       171        45  -4.23392
         2       137        70  -2.26094
         2       138        70  -2.26094
         2       174        48  -2.27124
         2       147        64-0.0861946
         2       174        49  -2.27124
         2       139        70  -2.26094
         2       150        65   -5.1802
         2       134        70  -2.26094
         2       171        46  -4.23392
         2       173        49  -2.27124
         2       136        70  -2.26094
         2       172        45  -4.23392
         2       149        64   -5.1802
         2       138        72  -2.26094
         2       149        65   -5.1802
         2       170        45  -4.23392
        25         0 # stress period 27
         2       150        65   -5.2751
         2       138        70   -2.2933
         2       175        49  -3.36023
         2       137        70   -2.2933
         2       135        70   -2.2933
         2       149        65   -5.2751
         2       136        70   -2.2933
         2       174        48  -3.36023
         2       148        65-0.0989041
         2       172        45  -4.22365
         2       171        44  -4.22365
         2       147        64-0.0989041
         2       134        70   -2.2933
         2       139        70   -2.2933
         2       173        49  -3.36023
         2       170        45  -4.22365
         2       138        72   -2.2933
         2       149        64   -5.2751
         2       174        49  -3.36023
         2       147        65-0.0989041
         2       138        71   -2.2933
         2       138        69   -2.2933
         2       174        50  -3.36023
         2       171        46  -4.22365
         2       171        45  -4.22365
        25         0 # stress period 28
         2       174        48 -0.488262
         2       137        70   -2.2771
         2       171        44  -4.35732
         2       171        46  -4.35732
         2       174        50 -0.488262
         2       170        45  -4.35732
         2       138        70   -2.2771
         2       150        65  -5.22432
         2       138        69   -2.2771
         2       147        64 -0.143575
         2       139        70   -2.2771
         2       147        65 -0.143575
         2       173        49 -0.488262
         2       138        72   -2.2771
         2       149        64  -5.22432
         2       134        70   -2.2771
         2       174        49 -0.488262
         2       135        70   -2.2771
         2       171        45  -4.35732
         2       149        65  -5.22432
         2       136        70   -2.2771
         2       175        49 -0.488262
         2       138        71   -2.2771
         2       172        45  -4.35732
         2       148        65 -0.143575
        25         0 # stress period 29
         2       147        65-0.0995228