# WEL package for MODFLOW-NWT generated by Flopy 3.3.5
        25         1 
        25         0 # stress period 1
         2       134        70   -0.1713
         2       136        70   -0.1713
         2       175        49  -4.54713
         2       137        70   -0.1713
         2       138        69   -0.1713
         2       138        70   -0.1713
         2       174        50  -4.54713
         2       138        71   -0.1713
         2       138        72   -0.1713
         2       172        45 -0.692132
         2       174        49  -4.54713
         2       171        44 -0.692132
         2       147        65 -0.155862
         2       171        46 -0.692132
         2       174        48  -4.54713
         2       148        65 -0.155862
         2       149        64  -5.80641
         2       173        49  -4.54713
         2       149        65  -5.80641
         2       171        45 -0.692132
         2       150        65  -5.80641
         2       170        45 -0.692132
         2       147        64 -0.155862
         2       135        70   -0.1713
         2       139        70   -0.1713
        25         0 # stress period 2
         2       171        44 -0.850098
         2       138        69  -1.43231
         2       138        72  -1.43231
         2       174        49  -4.46489
         2       147        65 -0.193384
         2       174        50  -4.46489
         2       138        70  -1.43231
         2       139        70  -1.43231
         2       171        45 -0.850098
         2       136        70  -1.43231
         2       172        45 -0.850098
         2       170        45 -0.850098
         2       138        71  -1.43231
         2       149        64  -5.76048
         2       171        46 -0.850098
         2       150        65  -5.76048
         2       135        70  -1.43231
         2       137        70  -1.43231
         2       175        49  -4.46489
         2       149        65  -5.76048
         2       147        64 -0.193384
         2       148        65 -0.193384
         2       174        48  -4.46489
         2       173        49  -4.46489
         2       134        70  -1.43231
        25         0 # stress period 3
         2       138        72  -1.15681
         2       139        70  -1.15681
         2       149        65  -2.78361
         2       147        64-0.0997011
         2       135        70  -1.15681
         2       171        46  -1.00806
         2       172        45  -1.00806
         2       173        49  -4.50669
         2       150        65  -2.78361
         2       175        49  -4.50669
         2       174        49  -4.50669
         2       171        45  -1.00806
         2       147        65-0.0997011
         2       137        70  -1.15681
         2       149        64  -2.78361
         2       174        50  -4.50669
         2       138        70  -1.15681
         2       138        69  -1.15681
         2       136        70  -1.15681
         2       174        48  -4.50669
         2       170        45  -1.00806
         2       171        44  -1.00806
         2       138        71  -1.15681
         2       134        70  -1.15681
         2       148        65-0.0997011
        25         0 # stress period 4
         2       139        70  -2.21532
         2       171        44  -1.67753
         2       135        70  -2.21532
         2       138        69  -2.21532
         2       174        48  -4.44948
         2       148        65 -0.193502
         2       137        70  -2.21532
         2       149        65  -3.12096
         2       173        49  -4.44948
         2       175        49  -4.44948
         2       147        64 -0.193502
         2       138        71  -2.21532
         2       171        46  -1.67753
         2       172        45  -1.67753
         2       150        65  -3.12096
         2       174        50  -4.44948
         2       134        70  -2.21532
         2       149        64  -3.12096
         2       136        70  -2.21532
         2       170        45  -1.67753
         2       138        70  -2.21532
         2       171        45  -1.67753
         2       138        72  -2.21532
         2       147        65 -0.193502
         2       174        49  -4.44948
        25         0 # stress period 5
         2       149        64 -0.373497
         2       147        64 -0.338505
         2       175        49  -1.09672
         2       147        65 -0.338505
         2       173        49  -1.09672
         2       174        48  -1.09672
         2       171        46  -4.45299
         2       136        70  -2.31562
         2       135        70  -2.31562
         2       172        45  -4.45299
         2       138        72  -2.31562
         2       134        70  -2.31562
         2       171        45  -4.45299
         2       138        71  -2.31562
         2       174        49  -1.09672
         2       170        45  -4.45299
         2       139        70  -2.31562
         2       150        65 -0.373497
         2       138        70  -2.31562
         2       174        50  -1.09672
         2       149        65 -0.373497
         2       148        65 -0.338505
         2       171        44  -4.45299
         2       138        69  -2.31562
         2       137        70  -2.31562
        25         0 # stress period 6
         2       170        45  -4.43676
         2       138        69  -1.44089
         2       174        50  -1.00197
         2       136        70  -1.44089
         2       138        70  -1.44089
         2       171        44  -4.43676
         2       138        71  -1.44089
         2       138        72  -1.44089
         2       172        45  -4.43676
         2       149        64 -0.771956
         2       171        45  -4.43676
         2       147        64 -0.263073
         2       171        46  -4.43676
         2       134        70  -1.44089
         2       137        70  -1.44089
         2       175        49  -1.00197
         2       139        70  -1.44089
         2       135        70  -1.44089
         2       173        49  -1.00197
         2       150        65 -0.771956
         2       149        65 -0.771956
         2       174        48  -1.00197
         2       148        65 -0.263073
         2       147        65 -0.263073
         2       174        49  -1.00197
        25         0 # stress period 7
         2       147        64  -2.36627
         2       171        46  -4.48813
         2       139        70  -2.44735
         2       174        50  -2.49183
         2       138        69  -2.44735
         2       172        45  -4.48813
         2       174        49  -2.49183
         2       147        65  -2.36627
         2       138        71  -2.44735
         2       175        49  -2.49183
         2       136        70  -2.44735
         2       138        70  -2.44735
         2       174        48  -2.49183
         2       138        72  -2.44735
         2       137        70  -2.44735
         2       149        65 -0.201025
         2       173        49  -2.49183
         2       134        70  -2.44735
         2       171        45  -4.48813
         2       148        65  -2.36627
         2       135        70  -2.44735
         2       150        65 -0.201025
         2       149        64 -0.201025
         2       171        44  -4.48813
         2       170        45  -4.48813
        25         0 # stress period 8
         2       138        70  -2.40456
         2       171        46  -2.10533
         2       147        65 -0.064421
         2       174        48  -4.46168
         2       173        49  -4.46168
         2       175        49  -4.46168
         2       171        44  -2.10533
         2       147        64 -0.064421
         2       171        45  -2.10533
         2       174        50  -4.46168
         2       135        70  -2.40456
         2       138        69  -2.40456
         2       149        64 -0.286143
         2       149        65 -0.286143
         2       174        49  -4.46168
         2       170        45  -2.10533
         2       150        65 -0.286143
         2       172        45  -2.10533
         2       138        72  -2.40456
         2       138        71  -2.40456
         2       139        70  -2.40456
         2       148        65 -0.064421
         2       137        70  -2.40456
         2       136        70  -2.40456
         2       134        70  -2.40456
        25         0 # stress period 9
         2       173        49  -4.52747
         2       174        50  -4.52747
         2       134        70  -1.54782
         2       135        70  -1.54782
         2       170        45   -1.3047
         2       139        70  -1.54782
         2       175        49  -4.52747
         2       138        69  -1.54782
         2       171        45   -1.3047
         2       147        64 -0.128034
         2       172        45   -1.3047
         2       174        48  -4.52747
         2       136        70  -1.54782
         2       138        70  -1.54782
         2       147        65 -0.128034
         2       148        65 -0.128034
         2       171        44   -1.3047
         2       149        64 -0.483949
         2       150        65 -0.483949
         2       137        70  -1.54782
         2       174        49  -4.52747
         2       171        46   -1.3047
         2       149        65 -0.483949
         2       138        72  -1.54782
         2       138        71  -1.54782
        25         0 # stress period 10
         2       138        70  -1.68824
         2       147        64 -0.129132
         2       137        70  -1.68824
         2       150        65  -3.78246
         2       175        49    -3.475
         2       138        71  -1.68824
         2       136        70  -1.68824
         2       138        72  -1.68824
         2       149        65  -3.78246
         2       174        49    -3.475
         2       171        45  -4.33054
         2       139        70  -1.68824
         2       134        70  -1.68824
         2       135        70  -1.68824
         2       172        45  -4.33054
         2       173        49    -3.475
         2       147        65 -0.129132
         2       174        48    -3.475
         2       174        50    -3.475
         2       171        46  -4.33054
         2       171        44  -4.33054
         2       138        69  -1.68824
         2       149        64  -3.78246
         2       148        65 -0.129132
         2       170        45  -4.33054
        25         0 # stress period 11
         2       137        70 -0.116263
         2       171        44    -4.521
         2       174        50 -0.208856
         2       139        70 -0.116263
         2       138        69 -0.116263
         2       147        65 -0.205447
         2       148        65 -0.205447
         2       149        65  -5.79163
         2       134        70 -0.116263
         2       138        72 -0.116263
         2       171        46    -4.521
         2       174        49 -0.208856
         2       149        64  -5.79163
         2       172        45    -4.521
         2       150        65  -5.79163
         2       138        71 -0.116263
         2       174        48 -0.208856
         2       135        70 -0.116263
         2       138        70 -0.116263
         2       147        64 -0.205447
         2       170        45    -4.521
         2       173        49 -0.208856
         2       171        45    -4.521
         2       136        70 -0.116263
         2       175        49 -0.208856
        25         0 # stress period 12
         2       136        70  -2.18955
         2       147        64 -0.514359
         2       149        65  -4.01359
         2       175        49  -1.40469
         2       172        45  -4.36822
         2       173        49  -1.40469
         2       138        70  -2.18955
         2       174        48  -1.40469
         2       149        64  -4.01359
         2       174        49  -1.40469
         2       138        71  -2.18955
         2       134        70  -2.18955
         2       147        65 -0.514359
         2       171        44  -4.36822
         2       139        70  -2.18955
         2       148        65 -0.514359
         2       150        65  -4.01359
         2       138        69  -2.18955
         2       170        45  -4.36822
         2       171        46  -4.36822
         2       135        70  -2.18955
         2       174        50  -1.40469
         2       171        45  -4.36822
         2       137        70  -2.18955
         2       138        72  -2.18955
        22         0 # stress period 13
         2       172        45  -4.36927
         2       138        70  -2.42993
         2       138        71  -2.42993
         2       138        69  -2.42993
         2       170        45  -4.36927
         2       171        44  -4.36927
         2       138        72  -2.42993
         2       174        50  -2.53737
         2       147        65  -0.82327
         2       147        64  -0.82327
         2       134        70  -2.42993
         2       135        70  -2.42993
         2       139        70  -2.42993
         2       173        49  -2.53737
         2       171        45  -4.36927
         2       137        70  -2.42993
         2       175        49  -2.53737
         2       174        48  -2.53737
         2       136        70  -2.42993
         2       174        49  -2.53737
         2       148        65  -0.82327
         2       171        46  -4.36927
        22         0 # stress period 14
         2       175        49 -0.608208
         2       147        64  -1.13218
         2       138        70  -2.41389
         2       171        44  -4.43159
         2       173        49 -0.608208
         2       139        70  -2.41389
         2       135        70  -2.41389
         2       170        45  -4.43159
         2       171        46  -4.43159
         2       171        45  -4.43159
         2       134        70  -2.41389
         2       174        48 -0.608208
         2       137        70  -2.41389
         2       172        45  -4.43159
         2       138        72  -2.41389
         2       174        49 -0.608208
         2       174        50 -0.608208
         2       136        70  -2.41389
         2       138        69  -2.41389
         2       138        71  -2.41389
         2       148        65  -1.13218
         2       147        65  -1.13218
        17         0 # stress period 15
         2       170        45  -4.45511
         2       138        69  -2.39786
         2       147        65  -1.44109
         2       171        44  -4.45511
         2       136        70  -2.39786
         2       135        70  -2.39786
         2       138        71  -2.39786
         2       148        65  -1.44109
         2       137        70  -2.39786
         2       139        70  -2.39786
         2       134        70  -2.39786
         2       138        72  -2.39786
         2       138        70  -2.39786
         2       147        64  -1.44109
         2       172        45  -4.45511
         2       171        46  -4.45511
         2       171        45  -4.45511
        17         0 # stress period 16
         2       147        65  -1.75001
         2       138        72  -2.38182
         2       134        70  -2.38182
         2       172        45  -4.44667
         2       171        45  -4.44667
         2       138        71  -2.38182
         2       148        65  -1.75001
         2       138        70  -2.38182
         2       171        44  -4.44667
         2       147        64  -1.75001
         2       170        45  -4.44667
         2       171        46  -4.44667
         2       139        70  -2.38182
         2       137        70  -2.38182
         2       135        70  -2.38182
         2       136        70  -2.38182
         2       138        69  -2.38182
        17         0 # stress period 17
         2       139        70  -2.36579
         2       147        64  -2.05892
         2       138        69  -2.36579
         2       171        45  -4.43823
         2       137        70  -2.36579
         2       135        70  -2.36579
         2       170        45  -4.43823
         2       138        71  -2.36579
         2       171        46  -4.43823
         2       171        44  -4.43823
         2       134        70  -2.36579
         2       147        65  -2.05892
         2       172        45  -4.43823
         2       148        65  -2.05892
         2       136        70  -2.36579
         2       138        70  -2.36579
         2       138        72  -2.36579
        17         0 # stress period 18
         2       135        70  -2.34975
         2       138        70  -2.34975
         2       138        69  -2.34975
         2       136        70  -2.34975
         2       171        46  -4.42979
         2       148        65  -2.36783
         2       170        45  -4.42979
         2       147        65  -2.36783
         2       171        45  -4.42979
         2       139        70  -2.34975
         2       147        64  -2.36783
         2       137        70  -2.34975
         2       134        70  -2.34975
         2       138        71  -2.34975
         2       171        44  -4.42979
         2       172        45  -4.42979
         2       138        72  -2.34975
        17         0 # stress period 19
         2       138        70  -2.33372
         2       138        71  -2.33372
         2       171        46  -4.42134
         2       138        72  -2.33372
         2       172        45  -4.42134
         2       147        64  -2.67674
         2       147        65  -2.67674
         2       171        44  -4.42134
         2       136        70  -2.33372
         2       171        45  -4.42134
         2       139        70  -2.33372
         2       170        45  -4.42134
         2       134        70  -2.33372
         2       137        70  -2.33372
         2       135        70  -2.33372
         2       148        65  -2.67674
         2       138        69  -2.33372
        17         0 # stress period 20
         2       136        70  -2.31768
         2       171        45   -4.4129
         2       138        72  -2.31768
         2       134        70  -2.31768
         2       138        71  -2.31768
         2       135        70  -2.31768
         2       147        65  -2.98565
         2       138        69  -2.31768
         2       148        65  -2.98565
         2       171        46   -4.4129
         2       138        70  -2.31768
         2       137        70  -2.31768
         2       170        45   -4.4129
         2       139        70  -2.31768
         2       172        45   -4.4129
         2       171        44   -4.4129
         2       147        64  -2.98565
        17         0 # stress period 21
         2       134        70  -2.30165
         2       138        69  -2.30165
         2       171        44  -4.40446
         2       137        70  -2.30165
         2       135        70  -2.30165
         2       138        71  -2.30165
         2       147        64  -3.29457
         2       171        45  -4.40446
         2       138        72  -2.30165
         2       170        45  -4.40446
         2       139        70  -2.30165
         2       172        45  -4.40446
         2       148        65  -3.29457
         2       136        70  -2.30165
         2       147        65  -3.29457
         2       171        46  -4.40446
         2       138        70  -2.30165
        17         0 # stress period 22
         2       148        65  -3.60348
         2       147        64  -3.60348
         2       136        70  -2.28561
         2       172        45  -4.39602
         2       171        45  -4.39602
         2       138        71  -2.28561
         2       138        72  -2.28561
         2       134        70  -2.28561
         2       170        45  -4.39602
         2       139        70  -2.28561
         2       147        65  -3.60348
         2       138        70  -2.28561
         2       171        44  -4.39602
         2       171        46  -4.39602
         2       138        69  -2.28561
         2       137        70  -2.28561
         2       135        70  -2.28561
        17         0 # stress period 23
         2       138        71  -2.26958
         2       147        64  -3.91239
         2       171        44  -4.38757
         2       139        70  -2.26958
         2       147        65  -3.91239
         2       134        70  -2.26958
         2       171        46  -4.38757
         2       138        69  -2.26958
         2       137        70  -2.26958
         2       135        70  -2.26958
         2       138        72  -2.26958
         2       148        65  -3.91239
         2       138        70  -2.26958
         2       136        70  -2.26958
         2       171        45  -4.38757
         2       170        45  -4.38757
         2       172        45  -4.38757
        17         0 # stress period 24
         2       148        65   -4.2213
         2       172        45  -4.37913
         2       136        70  -2.25354
         2       134        70  -2.25354
         2       138        69  -2.25354
         2       138        70  -2.25354
         2       137        70  -2.25354
         2       170        45  -4.37913
         2       139        70  -2.25354
         2       171        46  -4.37913
         2       147        65   -4.2213
         2       135        70  -2.25354
         2       147        64   -4.2213
         2       171        44  -4.37913
         2       138        72  -2.25354
         2       171        45  -4.37913
         2       138        71  -2.25354
        17         0 # stress period 25
         2       139        70  -2.23751
         2       147        64  -4.53021
         2       171        46  -4.37069
         2       137        70  -2.23751
         2       147        65  -4.53021
         2       136        70  -2.23751
         2       138        72  -2.23751
         2       148        65  -4.53021
         2       134        70  -2.23751
         2       171        45  -4.37069
         2       138        71  -2.23751
         2       138        69  -2.23751
         2       135        70  -2.23751
         2       170        45  -4.37069
         2       138        70  -2.23751
         2       171        44  -4.37069
         2       172        45  -4.37069
        17         0 # stress period 26
         2       135        70  -2.22147
         2       138        69  -2.22147
         2       171        44  -4.36225
         2       148        65  -4.83913
         2       147        65  -4.83913
         2       138        71  -2.22147
         2       171        45  -4.36225
         2       137        70  -2.22147
         2       138        70  -2.22147
         2       147        64  -4.83913
         2       139        70  -2.22147
         2       134        70  -2.22147
         2       171        46  -4.36225
         2       136        70  -2.22147
         2       172        45  -4.36225
         2       138        72  -2.22147
         2       170        45  -4.36225
        20         0 # stress period 27
         2       150        65 -0.553955
         2       138        70  -2.23743
         2       137        70  -2.23743
         2       135        70  -2.23743
         2       149        65 -0.553955
         2       136        70  -2.23743
         2       148        65  -4.57427
         2       172        45  -3.31421
         2       171        44  -3.31421
         2       147        64  -4.57427
         2       134        70  -2.23743
         2       139        70  -2.23743
         2       170        45  -3.31421
         2       138        72  -2.23743
         2       149        64 -0.553955
         2       147        65  -4.57427
         2       138        71  -2.23743
         2       138        69  -2.23743
         2       171        46  -3.31421
         2       171        45  -3.31421
        25         0 # stress period 28
         2       174        48-0.0532265
         2       137        70  -2.44305
         2       171        44  -4.03314
         2       171        46  -4.03314
         2       174        50-0.0532265
         2       170        45  -4.03314
         2       138        70  -2.44305
         2       150        65  -5.50123
         2       138        69  -2.44305
         2       147        64 -0.145717
         2       139        70  -2.44305
         2       147        65 -0.145717
         2       173        49-0.0532265
         2       138        72  -2.44305
         2       149        64  -5.50123
         2       134        70  -2.44305
         2       174        49-0.0532265
         2       135        70  -2.44305
         2       171        45  -4.03314
         2       149        65  -5.50123
         2       136        70  -2.44305
         2       175        49-0.0532265
         2       138        71  -2.44305
         2       172        45  -4.03314
         2       148        65 -0.145717
        25         0 # stress period 29
         2       147        65 -0.281184
         2       174        48 -0.166268
         2       171        45  -2.19585
         2       174        50 -0.166268
         2       138        71  -2.23961
         2       138        69  -2.23961
         2       171        46  -2.19585
         2       149        64  -5.53817
         2       174        49 -0.166268
         2       170        45  -2.19585
         2       173        49 -0.166268
         2       139        70  -2.23961
         2       147        64 -0.281184
         2       171        44  -2.19585
         2       172        45  -2.19585
         2       135        70  -2.23961
         2       148        65 -0.281184
         2       137        70  -2.23961
         2       150        65  -5.53817
         2       138        70  -2.23961
         2       134        70  -2.23961
         2       175        49 -0.166268
         2       149        65  -5.53817
         2       136        70  -2.23961
         2       138        72  -2.23961
        25         0 # stress period 30
         2       138        69  -2.02897
         2       147        65 -0.153414
         2       136        70  -2.02897
         2       170        45   -4.2038
         2       174        49 -0.279733
         2       171        44   -4.2038
         2       134        70  -2.02897
         2       139        70  -2.02897
         2       147        64 -0.153414
         2       172        45   -4.2038
         2       173        49 -0.279733
         2       150        65  -5.26274
         2       149        65  -5.26274
         2       148        65 -0.153414
         2       138        72  -2.02897
         2       175        49 -0.279733
         2       171        46   -4.2038
         2       138        71  -2.02897
         2       137        70  -2.02897
         2       171        45   -4.2038
         2       174        50 -0.279733
         2       174        48 -0.279733
         2       135        70  -2.02897
         2       149        64  -5.26274
         2       138        70  -2.02897
        25         0 # stress period 31
         2       174        48 -0.393199
         2       135        70  -3.37471
         2       147        65 -0.202162
         2       171        44   -4.0689
         2       148        65 -0.202162
         2       170        45   -4.0689
         2       171        46   -4.0689
         2       147        64 -0.202162
         2       136        70  -3.37471
         2       171        45   -4.0689
         2       149        64  -5.17027
         2       149        65  -5.17027
         2       150        65  -5.17027
         2       173        49 -0.393199
         2       175        49 -0.393199
         2       134        70  -3.37471
         2       138        72  -3.37471
         2       139        70  -3.37471
         2       138        70  -3.37471
         2       174        49 -0.393199
         2       137        70  -3.37471
         2       174        50 -0.393199
         2       138        71  -3.37471
         2       138        69  -3.37471
         2       172        45   -4.0689
        25         0 # stress period 32
         2       147        64 -0.151842
         2       175        49  -1.27087
         2       174        49  -1.27087
         2       138        69     -2.87
         2       170        45  -3.00932
         2       139        70     -2.87
         2       174        50  -1.27087
         2       172        45  -3.00932
         2       149        64  -4.14673
         2       173        49  -1.27087
         2       138        72     -2.87
         2       150        65  -4.14673
         2       138        70     -2.87
         2       174        48  -1.27087
         2       171        45  -3.00932
         2       137        70     -2.87
         2       138        71     -2.87
         2       135        70     -2.87
         2       136        70     -2.87
         2       149        65  -4.14673
         2       171        46  -3.00932
         2       147        65 -0.151842
         2       134        70     -2.87
         2       148        65 -0.151842
         2       171        44  -3.00932
        25         0 # stress period 33
         2       138        72  -2.93239
         2       174        50   -3.2149
         2       174        48   -3.2149
         2       175        49   -3.2149