# WEL package for MODFLOW-NWT generated by Flopy 3.3.5
        25         1 
        25         0 # stress period 1
         2       134        70  -2.57025
         2       136        70  -2.57025
         2       175        49  -4.62789
         2       137        70  -2.57025
         2       138        69  -2.57025
         2       138        70  -2.57025
         2       174        50  -4.62789
         2       138        71  -2.57025
         2       138        72  -2.57025
         2       172        45  -3.92991
         2       174        49  -4.62789
         2       171        44  -3.92991
         2       147        65   -3.1346
         2       171        46  -3.92991
         2       174        48  -4.62789
         2       148        65   -3.1346
         2       149        64  -5.17071
         2       173        49  -4.62789
         2       149        65  -5.17071
         2       171        45  -3.92991
         2       150        65  -5.17071
         2       170        45  -3.92991
         2       147        64   -3.1346
         2       135        70  -2.57025
         2       139        70  -2.57025
        25         0 # stress period 2
         2       171        44  -3.80837
         2       138        69  -1.61196
         2       138        72  -1.61196
         2       174        49  -4.75583
         2       147        65  -5.14127
         2       174        50  -4.75583
         2       138        70  -1.61196
         2       139        70  -1.61196
         2       171        45  -3.80837
         2       136        70  -1.61196
         2       172        45  -3.80837
         2       170        45  -3.80837
         2       138        71  -1.61196
         2       149        64  -5.29691
         2       171        46  -3.80837
         2       150        65  -5.29691
         2       135        70  -1.61196
         2       137        70  -1.61196
         2       175        49  -4.75583
         2       149        65  -5.29691
         2       147        64  -5.14127
         2       148        65  -5.14127
         2       174        48  -4.75583
         2       173        49  -4.75583
         2       134        70  -1.61196
        25         0 # stress period 3
         2       138        72  -3.49171
         2       139        70  -3.49171
         2       149        65  -5.23813
         2       147        64  -5.08909
         2       135        70  -3.49171
         2       171        46  -3.79159
         2       172        45  -3.79159
         2       173        49  -4.98975
         2       150        65  -5.23813
         2       175        49  -4.98975
         2       174        49  -4.98975
         2       171        45  -3.79159
         2       147        65  -5.08909
         2       137        70  -3.49171
         2       149        64  -5.23813
         2       174        50  -4.98975
         2       138        70  -3.49171
         2       138        69  -3.49171
         2       136        70  -3.49171
         2       174        48  -4.98975
         2       170        45  -3.79159
         2       171        44  -3.79159
         2       138        71  -3.49171
         2       134        70  -3.49171
         2       148        65  -5.08909
        25         0 # stress period 4
         2       139        70  -3.54441
         2       171        44  -3.77186
         2       135        70  -3.54441
         2       138        69  -3.54441
         2       174        48  -5.24153
         2       148        65  -5.05754
         2       137        70  -3.54441
         2       149        65  -5.21125
         2       173        49  -5.24153
         2       175        49  -5.24153
         2       147        64  -5.05754
         2       138        71  -3.54441
         2       171        46  -3.77186
         2       172        45  -3.77186
         2       150        65  -5.21125
         2       174        50  -5.24153
         2       134        70  -3.54441
         2       149        64  -5.21125
         2       136        70  -3.54441
         2       170        45  -3.77186
         2       138        70  -3.54441
         2       171        45  -3.77186
         2       138        72  -3.54441
         2       147        65  -5.05754
         2       174        49  -5.24153
        25         0 # stress period 5
         2       149        64   -5.1892
         2       147        64  -5.02898
         2       175        49  -5.48924
         2       147        65  -5.02898
         2       173        49  -5.48924
         2       174        48  -5.48924
         2       171        46   -3.7816
         2       136        70  -3.57765
         2       135        70  -3.57765
         2       172        45   -3.7816
         2       138        72  -3.57765
         2       134        70  -3.57765
         2       171        45   -3.7816
         2       138        71  -3.57765
         2       174        49  -5.48924
         2       170        45   -3.7816
         2       139        70  -3.57765
         2       150        65   -5.1892
         2       138        70  -3.57765
         2       174        50  -5.48924
         2       149        65   -5.1892
         2       148        65  -5.02898
         2       171        44   -3.7816
         2       138        69  -3.57765
         2       137        70  -3.57765
        25         0 # stress period 6
         2       170        45  -3.83779
         2       138        69  -3.61089
         2       174        50  -5.78877
         2       136        70  -3.61089
         2       138        70  -3.61089
         2       171        44  -3.83779
         2       138        71  -3.61089
         2       138        72  -3.61089
         2       172        45  -3.83779
         2       149        64  -5.23545
         2       171        45  -3.83779
         2       147        64  -5.07609
         2       171        46  -3.83779
         2       134        70  -3.61089
         2       137        70  -3.61089
         2       175        49  -5.78877
         2       139        70  -3.61089
         2       135        70  -3.61089
         2       173        49  -5.78877
         2       150        65  -5.23545
         2       149        65  -5.23545
         2       174        48  -5.78877
         2       148        65  -5.07609
         2       147        65  -5.07609
         2       174        49  -5.78877
        25         0 # stress period 7
         2       147        64  -4.76509
         2       171        46  -3.76526
         2       139        70  -3.64413
         2       174        50  -5.96343
         2       138        69  -3.64413
         2       172        45  -3.76526
         2       174        49  -5.96343
         2       147        65  -4.76509
         2       138        71  -3.64413
         2       175        49  -5.96343
         2       136        70  -3.64413
         2       138        70  -3.64413
         2       174        48  -5.96343
         2       138        72  -3.64413
         2       137        70  -3.64413
         2       149        65  -5.12091
         2       173        49  -5.96343
         2       134        70  -3.64413
         2       171        45  -3.76526
         2       148        65  -4.76509
         2       135        70  -3.64413
         2       150        65  -5.12091
         2       149        64  -5.12091
         2       171        44  -3.76526
         2       170        45  -3.76526
        25         0 # stress period 8
         2       138        70  -3.64604
         2       171        46  -3.93413
         2       147        65 -0.247175
         2       174        48  -6.09601
         2       173        49  -6.09601
         2       175        49  -6.09601
         2       171        44  -3.93413
         2       147        64 -0.247175
         2       171        45  -3.93413
         2       174        50  -6.09601
         2       135        70  -3.64604
         2       138        69  -3.64604
         2       149        64  -5.40203
         2       149        65  -5.40203
         2       174        49  -6.09601
         2       170        45  -3.93413
         2       150        65  -5.40203
         2       172        45  -3.93413
         2       138        72  -3.64604
         2       138        71  -3.64604
         2       139        70  -3.64604
         2       148        65 -0.247175
         2       137        70  -3.64604
         2       136        70  -3.64604
         2       134        70  -3.64604
        25         0 # stress period 9
         2       173        49  -6.60905
         2       174        50  -6.60905
         2       134        70  -3.45703
         2       135        70  -3.45703
         2       170        45  -3.89918
         2       139        70  -3.45703
         2       175        49  -6.60905
         2       138        69  -3.45703
         2       171        45  -3.89918
         2       147        64 -0.708937
         2       172        45  -3.89918
         2       174        48  -6.60905
         2       136        70  -3.45703
         2       138        70  -3.45703
         2       147        65 -0.708937
         2       148        65 -0.708937
         2       171        44  -3.89918
         2       149        64  -5.39395
         2       150        65  -5.39395
         2       137        70  -3.45703
         2       174        49  -6.60905
         2       171        46  -3.89918
         2       149        65  -5.39395
         2       138        72  -3.45703
         2       138        71  -3.45703
        25         0 # stress period 10
         2       138        70  -3.40178
         2       147        64  -2.98969
         2       137        70  -3.40178
         2       150        65  -5.35555
         2       175        49  -6.82385
         2       138        71  -3.40178
         2       136        70  -3.40178
         2       138        72  -3.40178
         2       149        65  -5.35555
         2       174        49  -6.82385
         2       171        45  -3.85379
         2       139        70  -3.40178
         2       134        70  -3.40178
         2       135        70  -3.40178
         2       172        45  -3.85379
         2       173        49  -6.82385
         2       147        65  -2.98969
         2       174        48  -6.82385
         2       174        50  -6.82385
         2       171        46  -3.85379
         2       171        44  -3.85379
         2       138        69  -3.40178
         2       149        64  -5.35555
         2       148        65  -2.98969
         2       170        45  -3.85379
        25         0 # stress period 11
         2       137        70  -3.34652
         2       171        44  -3.70483
         2       174        50  -6.98393
         2       139        70  -3.34652
         2       138        69  -3.34652
         2       147        65  -4.98925
         2       148        65  -4.98925
         2       149        65  -5.14281
         2       134        70  -3.34652
         2       138        72  -3.34652
         2       171        46  -3.70483
         2       174        49  -6.98393
         2       149        64  -5.14281
         2       172        45  -3.70483
         2       150        65  -5.14281
         2       138        71  -3.34652
         2       174        48  -6.98393
         2       135        70  -3.34652
         2       138        70  -3.34652
         2       147        64  -4.98925
         2       170        45  -3.70483
         2       173        49  -6.98393
         2       171        45  -3.70483
         2       136        70  -3.34652
         2       175        49  -6.98393
        25         0 # stress period 12
         2       136        70  -3.34302
         2       147        64   -4.8896
         2       149        65  -5.04572
         2       175        49  -7.21366
         2       172        45  -3.60668
         2       173        49  -7.21366
         2       138        70  -3.34302
         2       174        48  -7.21366
         2       149        64  -5.04572
         2       174        49  -7.21366
         2       138        71  -3.34302
         2       134        70  -3.34302
         2       147        65   -4.8896
         2       171        44  -3.60668
         2       139        70  -3.34302
         2       148        65   -4.8896
         2       150        65  -5.04572
         2       138        69  -3.34302
         2       170        45  -3.60668
         2       171        46  -3.60668
         2       135        70  -3.34302
         2       174        50  -7.21366
         2       171        45  -3.60668
         2       137        70  -3.34302
         2       138        72  -3.34302
        25         0 # stress period 13
         2       172        45   -3.6145
         2       138        70  -3.39721
         2       150        65  -5.06103
         2       138        71  -3.39721
         2       138        69  -3.39721
         2       170        45   -3.6145
         2       171        44   -3.6145
         2       138        72  -3.39721
         2       174        50   -4.7114
         2       147        65   -4.9047
         2       147        64   -4.9047
         2       134        70  -3.39721
         2       135        70  -3.39721
         2       139        70  -3.39721
         2       149        64  -5.06103
         2       173        49   -4.7114
         2       171        45   -3.6145
         2       137        70  -3.39721
         2       175        49   -4.7114
         2       149        65  -5.06103
         2       174        48   -4.7114
         2       136        70  -3.39721
         2       174        49   -4.7114
         2       148        65   -4.9047
         2       171        46   -3.6145
        25         0 # stress period 14
         2       175        49  -3.67745
         2       147        64  -4.95422
         2       138        70  -3.45144
         2       171        44  -3.66866
         2       173        49  -3.67745
         2       139        70  -3.45144
         2       135        70  -3.45144
         2       170        45  -3.66866
         2       171        46  -3.66866
         2       171        45  -3.66866
         2       134        70  -3.45144
         2       174        48  -3.67745
         2       137        70  -3.45144
         2       172        45  -3.66866
         2       138        72  -3.45144
         2       174        49  -3.67745
         2       150        65  -5.10695
         2       174        50  -3.67745
         2       149        65  -5.10695
         2       136        70  -3.45144
         2       138        69  -3.45144
         2       149        64  -5.10695
         2       138        71  -3.45144
         2       148        65  -4.95422
         2       147        65  -4.95422
        25         0 # stress period 15
         2       170        45  -3.84246
         2       138        69   -3.4887
         2       147        65  -1.95751
         2       171        44  -3.84246
         2       149        64  -5.31431
         2       174        50  -3.87768
         2       136        70   -3.4887
         2       173        49  -3.87768
         2       149        65  -5.31431
         2       135        70   -3.4887
         2       138        71   -3.4887
         2       174        48  -3.87768
         2       148        65  -1.95751
         2       137        70   -3.4887
         2       139        70   -3.4887
         2       134        70   -3.4887
         2       138        72   -3.4887
         2       150        65  -5.31431
         2       138        70   -3.4887
         2       175        49  -3.87768
         2       147        64  -1.95751
         2       172        45  -3.84246
         2       174        49  -3.87768
         2       171        46  -3.84246
         2       171        45  -3.84246
         0         0 # stress period 16
         0         0 # stress period 17
         0         0 # stress period 18
         0         0 # stress period 19
        25         0 # stress period 20
         2       149        64  -5.11605
         2       174        49  -4.08012
         2       136        70  -3.47179
         2       171        45  -4.08059
         2       149        65  -5.11605
         2       138        72  -3.47179
         2       134        70  -3.47179
         2       138        71  -3.47179
         2       175        49  -4.08012
         2       173        49  -4.08012
         2       135        70  -3.47179
         2       147        65  -4.95247
         2       150        65  -5.11605
         2       138        69  -3.47179
         2       148        65  -4.95247
         2       171        46  -4.08059
         2       174        50  -4.08012
         2       138        70  -3.47179
         2       137        70  -3.47179
         2       170        45  -4.08059
         2       139        70  -3.47179
         2       172        45  -4.08059
         2       171        44  -4.08059
         2       174        48  -4.08012
         2       147        64  -4.95247
        25         0 # stress period 21
         2       134        70  -3.43272
         2       174        49  -4.71864
         2       138        69  -3.43272
         2       175        49  -4.71864
         2       171        44  -4.76236
         2       137        70  -3.43272
         2       135        70  -3.43272
         2       174        50  -4.71864
         2       138        71  -3.43272
         2       147        64  -4.96359
         2       173        49  -4.71864
         2       149        65  -5.12572
         2       171        45  -4.76236
         2       149        64  -5.12572
         2       138        72  -3.43272
         2       170        45  -4.76236
         2       139        70  -3.43272
         2       172        45  -4.76236
         2       148        65  -4.96359
         2       150        65  -5.12572
         2       136        70  -3.43272
         2       147        65  -4.96359
         2       174        48  -4.71864
         2       171        46  -4.76236
         2       138        70  -3.43272
        25         0 # stress period 22
         2       148        65  -2.32919
         2       147        64  -2.32919
         2       136        70  -3.39335
         2       172        45  -5.54253
         2       171        45  -5.54253
         2       138        71  -3.39335
         2       149        65  -5.29998
         2       138        72  -3.39335
         2       134        70  -3.39335
         2       173        49   -5.4402
         2       170        45  -5.54253
         2       139        70  -3.39335
         2       149        64  -5.29998
         2       147        65  -2.32919
         2       138        70  -3.39335
         2       150        65  -5.29998
         2       171        44  -5.54253
         2       171        46  -5.54253
         2       138        69  -3.39335
         2       174        48   -5.4402
         2       137        70  -3.39335
         2       175        49   -5.4402
         2       174        49   -5.4402
         2       174        50   -5.4402
         2       135        70  -3.39335
        25         0 # stress period 23
         2       138        71  -3.35399
         2       149        64  -5.37239
         2       173        49  -6.08958
         2       147        64  -4.39116
         2       150        65  -5.37239
         2       171        44  -6.23741
         2       139        70  -3.35399
         2       174        48  -6.08958
         2       149        65  -5.37239
         2       147        65  -4.39116
         2       134        70  -3.35399
         2       171        46  -6.23741
         2       138        69  -3.35399
         2       137        70  -3.35399
         2       135        70  -3.35399
         2       174        50  -6.08958
         2       138        72  -3.35399
         2       148        65  -4.39116
         2       138        70  -3.35399
         2       136        70  -3.35399
         2       171        45  -6.23741
         2       174        49  -6.08958
         2       170        45  -6.23741
         2       172        45  -6.23741
         2       175        49  -6.08958
        25         0 # stress period 24
         2       174        49  -6.56274
         2       148        65  -7.02544
         2       172        45  -6.54644
         2       149        64  -5.02438
         2       173        49  -6.56274
         2       136        70  -3.29925
         2       150        65  -5.02438
         2       134        70  -3.29925
         2       174        50  -6.56274
         2       138        69  -3.29925
         2       138        70  -3.29925
         2       137        70  -3.29925
         2       170        45  -6.54644
         2       139        70  -3.29925
         2       174        48  -6.56274
         2       171        46  -6.54644
         2       147        65  -7.02544
         2       149        65  -5.02438
         2       135        70  -3.29925
         2       175        49  -6.56274
         2       147        64  -7.02544
         2       171        44  -6.54644
         2       138        72  -3.29925
         2       171        45  -6.54644
         2       138        71  -3.29925
        25         0 # stress period 25
         2       139        70  -3.35308
         2       147        64  -5.84345
         2       171        46  -5.17533
         2       137        70  -3.35308
         2       174        48  -6.05189
         2       174        49  -6.05189
         2       147        65  -5.84345
         2       136        70  -3.35308
         2       175        49  -6.05189
         2       138        72  -3.35308
         2       148        65  -5.84345
         2       149        64  -4.98215
         2       134        70  -3.35308
         2       171        45  -5.17533
         2       138        71  -3.35308
         2       138        69  -3.35308
         2       174        50  -6.05189
         2       135        70  -3.35308
         2       149        65  -4.98215
         2       173        49  -6.05189
         2       150        65  -4.98215
         2       170        45  -5.17533
         2       138        70  -3.35308
         2       171        44  -5.17533
         2       172        45  -5.17533
        25         0 # stress period 26
         2       135        70  -2.80276
         2       138        69  -2.80276
         2       174        50  -4.65312
         2       175        49  -4.65312
         2       171        44  -5.85983
         2       148        65  -4.86719
         2       147        65  -4.86719
         2       138        71  -2.80276
         2       171        45  -5.85983
         2       137        70  -2.80276
         2       138        70  -2.80276
         2       174        48  -4.65312
         2       147        64  -4.86719
         2       174        49  -4.65312
         2       139        70  -2.80276
         2       150        65  -5.03121
         2       134        70  -2.80276
         2       171        46  -5.85983
         2       173        49  -4.65312
         2       136        70  -2.80276
         2       172        45  -5.85983
         2       149        64  -5.03121
         2       138        72  -2.80276
         2       149        65  -5.03121
         2       170        45  -5.85983
        25         0 # stress period 27
         2       150        65   -5.1907
         2       138        70  -3.47009
         2       175        49  -3.78479
         2       137        70  -3.47009
         2       135        70  -3.47009
         2       149        65   -5.1907
         2       136        70  -3.47009
         2       174        48  -3.78479
         2       148        65  -4.28085
         2       172        45  -4.24909
         2       171        44  -4.24909
         2       147        64  -4.28085
         2       134        70  -3.47009
         2       139        70  -3.47009
         2       173        49  -3.78479
         2       170        45  -4.24909
         2       138        72  -3.47009
         2       149        64   -5.1907
         2       174        49  -3.78479
         2       147        65  -4.28085
         2       138        71  -3.47009
         2       138        69  -3.47009
         2       174        50  -3.78479
         2       171        46  -4.24909
         2       171        45  -4.24909
        25         0 # stress period 28
         2       174        48  -3.94675
         2       137        70  -3.47984
         2       171        44  -3.93663
         2       171        46  -3.93663
         2       174        50  -3.94675
         2       170        45  -3.93663
         2       138        70  -3.47984
         2       150        65  -3.97455
         2       138        69  -3.47984
         2       147        64  -1.85598
         2       139        70  -3.47984
         2       147        65  -1.85598
         2       173        49  -3.94675
         2       138        72  -3.47984
         2       149        64  -3.97455
         2       134        70  -3.47984
         2       174        49  -3.94675
         2       135        70  -3.47984
         2       171        45  -3.93663
         2       149        65  -3.97455
         2       136        70  -3.47984
         2       175        49  -3.94675
         2       138        71  -3.47984
         2       172        45  -3.93663
         2       148        65  -1.85598
        25         0 # stress period 29
         2       147        65  -4.87358
         2       174        48  -3.88217
         2       171        45  -3.87334
         2       174        50  -3.88217
         2       138        71  -3.47984
         2       138        69  -3.47984
         2       171        46  -3.87334
         2       149        64  -5.36526
         2       174        49  -3.88217
         2       170        45  -3.87334
         2       173        49  -3.88217
         2       139        70  -3.47984
         2       147        64  -4.87358
         2       171        44  -3.87334
         2       172        45  -3.87334
         2       135        70  -3.47984
         2       148        65  -4.87358
         2       137        70  -3.47984
         2       150        65  -5.36526
         2       138        70  -3.47984
         2       134        70  -3.47984
         2       175        49  -3.88217
         2       149        65  -5.36526
         2       136        70  -3.47984
         2       138        72  -3.47984
        25         0 # stress period 30
         2       138        69  -3.47984
         2       147        65  -5.06879
         2       136        70  -3.47984
         2       170        45  -3.80758
         2       174        49  -3.82597
         2       171        44  -3.80758
         2       134        70  -3.47984
         2       139        70  -3.47984
         2       147        64  -5.06879
         2       172        45  -3.80758
         2       173        49  -3.82597
         2       150        65  -5.23554
         2       149        65  -5.23554
         2       148        65  -5.06879
         2       138        72  -3.47984
         2       175        49  -3.82597
         2       171        46  -3.80758
         2       138        71  -3.47984
         2       137        70  -3.47984
         2       171        45  -3.80758
         2       174        50  -3.82597
         2       174        48  -3.82597
         2       135        70  -3.47984
         2       149        64  -5.23554
         2       138        70  -3.47984
        25         0 # stress period 31
         2       174        48  -5.12276
         2       135        70  -3.46186
         2       147        65  -1.90257
         2       171        44  -3.69328
         2       148        65  -1.90257
         2       170        45  -3.69328
         2       171        46  -3.69328
         2       147        64  -1.90257
         2       136        70  -3.46186
         2       171        45  -3.69328
         2       149        64  -2.22252
         2       149        65  -2.22252
         2       150        65  -2.22252
         2       173        49  -5.12276
         2       175        49  -5.12276
         2       134        70  -3.46186
         2       138        72  -3.46186
         2       139        70  -3.46186
         2       138        70  -3.46186
         2       174        49  -5.12276
         2       137        70  -3.46186
         2       174        50  -5.12276
         2       138        71  -3.46186
         2       138        69  -3.46186
         2       172        45  -3.69328
        25         0 # stress period 32
         2       147        64  -3.87699
         2       175        49  -6.99115
         2       174        49  -6.99115
         2       138        69  -3.05656
         2       170        45   -4.4556
         2       139        70  -3.05656
         2       174        50  -6.99115
         2       172        45   -4.4556
         2       149        64 -0.851264
         2       173        49  -6.99115
         2       138        72  -3.05656
         2       150        65 -0.851264
         2       138        70  -3.05656
         2       174        48  -6.99115
         2       171        45   -4.4556
         2       137        70  -3.05656
         2       138        71  -3.05656
         2       135        70  -3.05656
         2       136        70  -3.05656
         2       149        65 -0.851264
         2       171        46   -4.4556
         2       147        65  -3.87699
         2       134        70  -3.05656